*SPEF "ieee 1481-1999"
*DESIGN "user_proj_example"
*DATE "11:11:11 Fri 11 11, 1111"
*VENDOR "OpenRCX"
*PROGRAM "Parallel Extraction"
*VERSION "1.0"
*DESIGN_FLOW "NAME_SCOPE LOCAL" "PIN_CAP NONE"
*DIVIDER /
*DELIMITER :
*BUS_DELIMITER []
*T_UNIT 1 NS
*C_UNIT 1 PF
*R_UNIT 1 OHM
*L_UNIT 1 HENRY

*NAME_MAP
*1 SEL2
*2 analog_io1
*3 analog_io2
*4 analog_io3
*5 io_in[0]
*6 io_in[1]
*7 io_in[2]
*8 io_in[3]
*9 io_in[4]
*14 net1
*15 net2
*16 net3
*17 net4
*18 net5
*19 net6
*20 net7
*21 ANTENNA_core_flat_v4_AIN1
*22 ANTENNA_core_flat_v4_AIN2
*23 ANTENNA_core_flat_v4_AIN3
*24 ANTENNA_core_flat_v4_DIGITALIN1
*25 ANTENNA_core_flat_v4_DIGITALIN2
*26 ANTENNA_core_flat_v4_DIGITALIN3
*27 ANTENNA_core_flat_v4_SEL1
*28 ANTENNA_core_flat_v4_SEL2
*29 ANTENNA_core_flat_v4_SEL3
*30 FILLER_0_0_1005
*31 FILLER_0_0_1009
*32 FILLER_0_0_1021
*33 FILLER_0_0_1033
*34 FILLER_0_0_1037
*35 FILLER_0_0_1049
*36 FILLER_0_0_1061
*37 FILLER_0_0_1065
*38 FILLER_0_0_1077
*39 FILLER_0_0_1089
*40 FILLER_0_0_109
*41 FILLER_0_0_1093
*42 FILLER_0_0_1105
*43 FILLER_0_0_1117
*44 FILLER_0_0_1121
*45 FILLER_0_0_113
*46 FILLER_0_0_1133
*47 FILLER_0_0_1145
*48 FILLER_0_0_1149
*49 FILLER_0_0_1161
*50 FILLER_0_0_1173
*51 FILLER_0_0_1177
*52 FILLER_0_0_1189
*53 FILLER_0_0_1201
*54 FILLER_0_0_1205
*55 FILLER_0_0_1217
*56 FILLER_0_0_1229
*57 FILLER_0_0_1233
*58 FILLER_0_0_1245
*59 FILLER_0_0_125
*60 FILLER_0_0_1257
*61 FILLER_0_0_1261
*62 FILLER_0_0_1273
*63 FILLER_0_0_1285
*64 FILLER_0_0_1289
*65 FILLER_0_0_1301
*66 FILLER_0_0_1313
*67 FILLER_0_0_1317
*68 FILLER_0_0_1329
*69 FILLER_0_0_1341
*70 FILLER_0_0_1345
*71 FILLER_0_0_1357
*72 FILLER_0_0_1369
*73 FILLER_0_0_137
*74 FILLER_0_0_1373
*75 FILLER_0_0_1385
*76 FILLER_0_0_1397
*77 FILLER_0_0_1401
*78 FILLER_0_0_141
*79 FILLER_0_0_1413
*80 FILLER_0_0_1425
*81 FILLER_0_0_1429
*82 FILLER_0_0_1441
*83 FILLER_0_0_1453
*84 FILLER_0_0_1457
*85 FILLER_0_0_1469
*86 FILLER_0_0_1481
*87 FILLER_0_0_1485
*88 FILLER_0_0_1497
*89 FILLER_0_0_15
*90 FILLER_0_0_1509
*91 FILLER_0_0_1519
*92 FILLER_0_0_153
*93 FILLER_0_0_1531
*94 FILLER_0_0_1539
*95 FILLER_0_0_1541
*96 FILLER_0_0_1553
*97 FILLER_0_0_1565
*98 FILLER_0_0_1569
*99 FILLER_0_0_1581
*100 FILLER_0_0_1593
*101 FILLER_0_0_1597
*102 FILLER_0_0_1609
*103 FILLER_0_0_1621
*104 FILLER_0_0_1625
*105 FILLER_0_0_1637
*106 FILLER_0_0_1649
*107 FILLER_0_0_165
*108 FILLER_0_0_1653
*109 FILLER_0_0_1665
*110 FILLER_0_0_1677
*111 FILLER_0_0_1681
*112 FILLER_0_0_169
*113 FILLER_0_0_1693
*114 FILLER_0_0_1705
*115 FILLER_0_0_1709
*116 FILLER_0_0_1721
*117 FILLER_0_0_1733
*118 FILLER_0_0_1737
*119 FILLER_0_0_1749
*120 FILLER_0_0_1761
*121 FILLER_0_0_1765
*122 FILLER_0_0_1777
*123 FILLER_0_0_1789
*124 FILLER_0_0_1793
*125 FILLER_0_0_1805
*126 FILLER_0_0_181
*127 FILLER_0_0_1817
*128 FILLER_0_0_1821
*129 FILLER_0_0_1833
*130 FILLER_0_0_1845
*131 FILLER_0_0_1849
*132 FILLER_0_0_1861
*133 FILLER_0_0_1873
*134 FILLER_0_0_1877
*135 FILLER_0_0_1889
*136 FILLER_0_0_1901
*137 FILLER_0_0_1905
*138 FILLER_0_0_1917
*139 FILLER_0_0_1929
*140 FILLER_0_0_193
*141 FILLER_0_0_1933
*142 FILLER_0_0_1945
*143 FILLER_0_0_1957
*144 FILLER_0_0_1961
*145 FILLER_0_0_197
*146 FILLER_0_0_1973
*147 FILLER_0_0_1985
*148 FILLER_0_0_1989
*149 FILLER_0_0_2001
*150 FILLER_0_0_2013
*151 FILLER_0_0_2017
*152 FILLER_0_0_2029
*153 FILLER_0_0_2041
*154 FILLER_0_0_2045
*155 FILLER_0_0_2057
*156 FILLER_0_0_2069
*157 FILLER_0_0_2073
*158 FILLER_0_0_2085
*159 FILLER_0_0_209
*160 FILLER_0_0_2097
*161 FILLER_0_0_2101
*162 FILLER_0_0_2113
*163 FILLER_0_0_2117
*164 FILLER_0_0_2124
*165 FILLER_0_0_2129
*166 FILLER_0_0_2141
*167 FILLER_0_0_2153
*168 FILLER_0_0_2157
*169 FILLER_0_0_2169
*170 FILLER_0_0_2181
*171 FILLER_0_0_2185
*172 FILLER_0_0_2197
*173 FILLER_0_0_2209
*174 FILLER_0_0_221
*175 FILLER_0_0_2213
*176 FILLER_0_0_2225
*177 FILLER_0_0_2237
*178 FILLER_0_0_2241
*179 FILLER_0_0_225
*180 FILLER_0_0_2253
*181 FILLER_0_0_2265
*182 FILLER_0_0_2269
*183 FILLER_0_0_2281
*184 FILLER_0_0_2293
*185 FILLER_0_0_2297
*186 FILLER_0_0_2309
*187 FILLER_0_0_2321
*188 FILLER_0_0_2325
*189 FILLER_0_0_2337
*190 FILLER_0_0_2349
*191 FILLER_0_0_2353
*192 FILLER_0_0_2365
*193 FILLER_0_0_237
*194 FILLER_0_0_2377
*195 FILLER_0_0_2381
*196 FILLER_0_0_2393
*197 FILLER_0_0_2405
*198 FILLER_0_0_2409
*199 FILLER_0_0_2421
*200 FILLER_0_0_2433
*201 FILLER_0_0_2437
*202 FILLER_0_0_2449
*203 FILLER_0_0_2461
*204 FILLER_0_0_2465
*205 FILLER_0_0_2477
*206 FILLER_0_0_2489
*207 FILLER_0_0_249
*208 FILLER_0_0_2493
*209 FILLER_0_0_2505
*210 FILLER_0_0_2517
*211 FILLER_0_0_2521
*212 FILLER_0_0_253
*213 FILLER_0_0_2533
*214 FILLER_0_0_2545
*215 FILLER_0_0_2549
*216 FILLER_0_0_2561
*217 FILLER_0_0_2573
*218 FILLER_0_0_2577
*219 FILLER_0_0_2589
*220 FILLER_0_0_2601
*221 FILLER_0_0_2605
*222 FILLER_0_0_2617
*223 FILLER_0_0_2629
*224 FILLER_0_0_2633
*225 FILLER_0_0_2645
*226 FILLER_0_0_265
*227 FILLER_0_0_2657
*228 FILLER_0_0_2661
*229 FILLER_0_0_2673
*230 FILLER_0_0_2685
*231 FILLER_0_0_2689
*232 FILLER_0_0_27
*233 FILLER_0_0_2701
*234 FILLER_0_0_2713
*235 FILLER_0_0_2717
*236 FILLER_0_0_2725
*237 FILLER_0_0_2738
*238 FILLER_0_0_2745
*239 FILLER_0_0_2757
*240 FILLER_0_0_2769
*241 FILLER_0_0_277
*242 FILLER_0_0_2773
*243 FILLER_0_0_2785
*244 FILLER_0_0_2797
*245 FILLER_0_0_2801
*246 FILLER_0_0_281
*247 FILLER_0_0_2813
*248 FILLER_0_0_2825
*249 FILLER_0_0_2829
*250 FILLER_0_0_2841
*251 FILLER_0_0_2853
*252 FILLER_0_0_2857
*253 FILLER_0_0_2869
*254 FILLER_0_0_2881
*255 FILLER_0_0_2885
*256 FILLER_0_0_2897
*257 FILLER_0_0_29
*258 FILLER_0_0_2909
*259 FILLER_0_0_2913
*260 FILLER_0_0_2925
*261 FILLER_0_0_293
*262 FILLER_0_0_2937
*263 FILLER_0_0_2941
*264 FILLER_0_0_2953
*265 FILLER_0_0_2965
*266 FILLER_0_0_2969
*267 FILLER_0_0_298
*268 FILLER_0_0_2981
*269 FILLER_0_0_2993
*270 FILLER_0_0_2997
*271 FILLER_0_0_3
*272 FILLER_0_0_3009
*273 FILLER_0_0_3015
*274 FILLER_0_0_306
*275 FILLER_0_0_309
*276 FILLER_0_0_321
*277 FILLER_0_0_333
*278 FILLER_0_0_337
*279 FILLER_0_0_349
*280 FILLER_0_0_361
*281 FILLER_0_0_365
*282 FILLER_0_0_377
*283 FILLER_0_0_389
*284 FILLER_0_0_393
*285 FILLER_0_0_405
*286 FILLER_0_0_41
*287 FILLER_0_0_417
*288 FILLER_0_0_421
*289 FILLER_0_0_433
*290 FILLER_0_0_445
*291 FILLER_0_0_449
*292 FILLER_0_0_461
*293 FILLER_0_0_473
*294 FILLER_0_0_477
*295 FILLER_0_0_489
*296 FILLER_0_0_501
*297 FILLER_0_0_505
*298 FILLER_0_0_517
*299 FILLER_0_0_529
*300 FILLER_0_0_53
*301 FILLER_0_0_533
*302 FILLER_0_0_545
*303 FILLER_0_0_557
*304 FILLER_0_0_561
*305 FILLER_0_0_57
*306 FILLER_0_0_573
*307 FILLER_0_0_585
*308 FILLER_0_0_589
*309 FILLER_0_0_601
*310 FILLER_0_0_613
*311 FILLER_0_0_617
*312 FILLER_0_0_629
*313 FILLER_0_0_641
*314 FILLER_0_0_645
*315 FILLER_0_0_657
*316 FILLER_0_0_669
*317 FILLER_0_0_673
*318 FILLER_0_0_685
*319 FILLER_0_0_69
*320 FILLER_0_0_697
*321 FILLER_0_0_701
*322 FILLER_0_0_713
*323 FILLER_0_0_725
*324 FILLER_0_0_729
*325 FILLER_0_0_741
*326 FILLER_0_0_753
*327 FILLER_0_0_757
*328 FILLER_0_0_769
*329 FILLER_0_0_781
*330 FILLER_0_0_785
*331 FILLER_0_0_797
*332 FILLER_0_0_809
*333 FILLER_0_0_81
*334 FILLER_0_0_813
*335 FILLER_0_0_825
*336 FILLER_0_0_837
*337 FILLER_0_0_841
*338 FILLER_0_0_85
*339 FILLER_0_0_853
*340 FILLER_0_0_865
*341 FILLER_0_0_869
*342 FILLER_0_0_881
*343 FILLER_0_0_893
*344 FILLER_0_0_897
*345 FILLER_0_0_901
*346 FILLER_0_0_908
*347 FILLER_0_0_920
*348 FILLER_0_0_925
*349 FILLER_0_0_937
*350 FILLER_0_0_949
*351 FILLER_0_0_953
*352 FILLER_0_0_965
*353 FILLER_0_0_97
*354 FILLER_0_0_977
*355 FILLER_0_0_981
*356 FILLER_0_0_993
*357 FILLER_0_100_15
*358 FILLER_0_100_1557
*359 FILLER_0_100_1569
*360 FILLER_0_100_1581
*361 FILLER_0_100_1583
*362 FILLER_0_100_1595
*363 FILLER_0_100_1607
*364 FILLER_0_100_1619
*365 FILLER_0_100_1631
*366 FILLER_0_100_1637
*367 FILLER_0_100_1639
*368 FILLER_0_100_1651
*369 FILLER_0_100_1663
*370 FILLER_0_100_1675
*371 FILLER_0_100_1687
*372 FILLER_0_100_1693
*373 FILLER_0_100_1695
*374 FILLER_0_100_1707
*375 FILLER_0_100_1719
*376 FILLER_0_100_1731
*377 FILLER_0_100_1743
*378 FILLER_0_100_1749
*379 FILLER_0_100_1751
*380 FILLER_0_100_1763
*381 FILLER_0_100_1775
*382 FILLER_0_100_1787
*383 FILLER_0_100_1799
*384 FILLER_0_100_1805
*385 FILLER_0_100_1807
*386 FILLER_0_100_1819
*387 FILLER_0_100_1831
*388 FILLER_0_100_1843
*389 FILLER_0_100_1855
*390 FILLER_0_100_1861
*391 FILLER_0_100_1863
*392 FILLER_0_100_1875
*393 FILLER_0_100_1887
*394 FILLER_0_100_1899
*395 FILLER_0_100_1911
*396 FILLER_0_100_1917
*397 FILLER_0_100_1919
*398 FILLER_0_100_1931
*399 FILLER_0_100_1943
*400 FILLER_0_100_1955
*401 FILLER_0_100_1967
*402 FILLER_0_100_1973
*403 FILLER_0_100_1975
*404 FILLER_0_100_1987
*405 FILLER_0_100_1999
*406 FILLER_0_100_2011
*407 FILLER_0_100_2023
*408 FILLER_0_100_2029
*409 FILLER_0_100_2031
*410 FILLER_0_100_2043
*411 FILLER_0_100_2055
*412 FILLER_0_100_2067
*413 FILLER_0_100_2079
*414 FILLER_0_100_2085
*415 FILLER_0_100_2087
*416 FILLER_0_100_2099
*417 FILLER_0_100_2111
*418 FILLER_0_100_2123
*419 FILLER_0_100_2135
*420 FILLER_0_100_2141
*421 FILLER_0_100_2143
*422 FILLER_0_100_2155
*423 FILLER_0_100_2167
*424 FILLER_0_100_2179
*425 FILLER_0_100_2191
*426 FILLER_0_100_2197
*427 FILLER_0_100_2199
*428 FILLER_0_100_2211
*429 FILLER_0_100_2223
*430 FILLER_0_100_2235
*431 FILLER_0_100_2247
*432 FILLER_0_100_2253
*433 FILLER_0_100_2255
*434 FILLER_0_100_2267
*435 FILLER_0_100_2279
*436 FILLER_0_100_2291
*437 FILLER_0_100_2303
*438 FILLER_0_100_2309
*439 FILLER_0_100_2311
*440 FILLER_0_100_2323
*441 FILLER_0_100_2335
*442 FILLER_0_100_2347
*443 FILLER_0_100_2359
*444 FILLER_0_100_2365
*445 FILLER_0_100_2367
*446 FILLER_0_100_2379
*447 FILLER_0_100_2391
*448 FILLER_0_100_2403
*449 FILLER_0_100_2415
*450 FILLER_0_100_2421
*451 FILLER_0_100_2423
*452 FILLER_0_100_2435
*453 FILLER_0_100_2447
*454 FILLER_0_100_2459
*455 FILLER_0_100_2471
*456 FILLER_0_100_2477
*457 FILLER_0_100_2479
*458 FILLER_0_100_2491
*459 FILLER_0_100_2503
*460 FILLER_0_100_2515
*461 FILLER_0_100_2527
*462 FILLER_0_100_2533
*463 FILLER_0_100_2535
*464 FILLER_0_100_2547
*465 FILLER_0_100_2559
*466 FILLER_0_100_2571
*467 FILLER_0_100_2583
*468 FILLER_0_100_2589
*469 FILLER_0_100_2591
*470 FILLER_0_100_2603
*471 FILLER_0_100_2615
*472 FILLER_0_100_2627
*473 FILLER_0_100_2639
*474 FILLER_0_100_2645
*475 FILLER_0_100_2647
*476 FILLER_0_100_2659
*477 FILLER_0_100_2671
*478 FILLER_0_100_2683
*479 FILLER_0_100_2695
*480 FILLER_0_100_27
*481 FILLER_0_100_2701
*482 FILLER_0_100_2703
*483 FILLER_0_100_2715
*484 FILLER_0_100_2727
*485 FILLER_0_100_2739
*486 FILLER_0_100_2751
*487 FILLER_0_100_2757
*488 FILLER_0_100_2759
*489 FILLER_0_100_2771
*490 FILLER_0_100_2783
*491 FILLER_0_100_2795
*492 FILLER_0_100_2807
*493 FILLER_0_100_2813
*494 FILLER_0_100_2815
*495 FILLER_0_100_2827
*496 FILLER_0_100_2839
*497 FILLER_0_100_2851
*498 FILLER_0_100_2863
*499 FILLER_0_100_2869
*500 FILLER_0_100_2871
*501 FILLER_0_100_2883
*502 FILLER_0_100_2895
*503 FILLER_0_100_29
*504 FILLER_0_100_2907
*505 FILLER_0_100_2919
*506 FILLER_0_100_2925
*507 FILLER_0_100_2927
*508 FILLER_0_100_2939
*509 FILLER_0_100_2951
*510 FILLER_0_100_2963
*511 FILLER_0_100_2975
*512 FILLER_0_100_2981
*513 FILLER_0_100_2983
*514 FILLER_0_100_2995
*515 FILLER_0_100_3
*516 FILLER_0_100_3007
*517 FILLER_0_100_3015
*518 FILLER_0_100_41
*519 FILLER_0_100_53
*520 FILLER_0_100_65
*521 FILLER_0_100_77
*522 FILLER_0_100_83
*523 FILLER_0_100_85
*524 FILLER_0_101_15
*525 FILLER_0_101_1557
*526 FILLER_0_101_1569
*527 FILLER_0_101_1581
*528 FILLER_0_101_1593
*529 FILLER_0_101_1605
*530 FILLER_0_101_1609
*531 FILLER_0_101_1611
*532 FILLER_0_101_1623
*533 FILLER_0_101_1635
*534 FILLER_0_101_1647
*535 FILLER_0_101_1659
*536 FILLER_0_101_1665
*537 FILLER_0_101_1667
*538 FILLER_0_101_1679
*539 FILLER_0_101_1691
*540 FILLER_0_101_1703
*541 FILLER_0_101_1715
*542 FILLER_0_101_1721
*543 FILLER_0_101_1723
*544 FILLER_0_101_1735
*545 FILLER_0_101_1747
*546 FILLER_0_101_1759
*547 FILLER_0_101_1771
*548 FILLER_0_101_1777
*549 FILLER_0_101_1779
*550 FILLER_0_101_1791
*551 FILLER_0_101_1803
*552 FILLER_0_101_1815
*553 FILLER_0_101_1827
*554 FILLER_0_101_1833
*555 FILLER_0_101_1835
*556 FILLER_0_101_1847
*557 FILLER_0_101_1859
*558 FILLER_0_101_1871
*559 FILLER_0_101_1883
*560 FILLER_0_101_1889
*561 FILLER_0_101_1891
*562 FILLER_0_101_1903
*563 FILLER_0_101_1915
*564 FILLER_0_101_1927
*565 FILLER_0_101_1939
*566 FILLER_0_101_1945
*567 FILLER_0_101_1947
*568 FILLER_0_101_1959
*569 FILLER_0_101_1971
*570 FILLER_0_101_1983
*571 FILLER_0_101_1995
*572 FILLER_0_101_2001
*573 FILLER_0_101_2003
*574 FILLER_0_101_2015
*575 FILLER_0_101_2027
*576 FILLER_0_101_2039
*577 FILLER_0_101_2051
*578 FILLER_0_101_2057
*579 FILLER_0_101_2059
*580 FILLER_0_101_2071
*581 FILLER_0_101_2083
*582 FILLER_0_101_2095
*583 FILLER_0_101_2107
*584 FILLER_0_101_2113
*585 FILLER_0_101_2115
*586 FILLER_0_101_2127
*587 FILLER_0_101_2139
*588 FILLER_0_101_2151
*589 FILLER_0_101_2163
*590 FILLER_0_101_2169
*591 FILLER_0_101_2171
*592 FILLER_0_101_2183
*593 FILLER_0_101_2195
*594 FILLER_0_101_2207
*595 FILLER_0_101_2219
*596 FILLER_0_101_2225
*597 FILLER_0_101_2227
*598 FILLER_0_101_2239
*599 FILLER_0_101_2251
*600 FILLER_0_101_2263
*601 FILLER_0_101_2275
*602 FILLER_0_101_2281
*603 FILLER_0_101_2283
*604 FILLER_0_101_2295
*605 FILLER_0_101_2307
*606 FILLER_0_101_2319
*607 FILLER_0_101_2331
*608 FILLER_0_101_2337
*609 FILLER_0_101_2339
*610 FILLER_0_101_2351
*611 FILLER_0_101_2363
*612 FILLER_0_101_2375
*613 FILLER_0_101_2387
*614 FILLER_0_101_2393
*615 FILLER_0_101_2395
*616 FILLER_0_101_2407
*617 FILLER_0_101_2419
*618 FILLER_0_101_2431
*619 FILLER_0_101_2443
*620 FILLER_0_101_2449
*621 FILLER_0_101_2451
*622 FILLER_0_101_2463
*623 FILLER_0_101_2475
*624 FILLER_0_101_2487
*625 FILLER_0_101_2499
*626 FILLER_0_101_2505
*627 FILLER_0_101_2507
*628 FILLER_0_101_2519
*629 FILLER_0_101_2531
*630 FILLER_0_101_2543
*631 FILLER_0_101_2555
*632 FILLER_0_101_2561
*633 FILLER_0_101_2563
*634 FILLER_0_101_2575
*635 FILLER_0_101_2587
*636 FILLER_0_101_2599
*637 FILLER_0_101_2611
*638 FILLER_0_101_2617
*639 FILLER_0_101_2619
*640 FILLER_0_101_2631
*641 FILLER_0_101_2643
*642 FILLER_0_101_2655
*643 FILLER_0_101_2667
*644 FILLER_0_101_2673
*645 FILLER_0_101_2675
*646 FILLER_0_101_2687
*647 FILLER_0_101_2699
*648 FILLER_0_101_27
*649 FILLER_0_101_2711
*650 FILLER_0_101_2723
*651 FILLER_0_101_2729
*652 FILLER_0_101_2731
*653 FILLER_0_101_2743
*654 FILLER_0_101_2755
*655 FILLER_0_101_2767
*656 FILLER_0_101_2779
*657 FILLER_0_101_2785
*658 FILLER_0_101_2787
*659 FILLER_0_101_2799
*660 FILLER_0_101_2811
*661 FILLER_0_101_2823
*662 FILLER_0_101_2835
*663 FILLER_0_101_2841
*664 FILLER_0_101_2843
*665 FILLER_0_101_2855
*666 FILLER_0_101_2867
*667 FILLER_0_101_2879
*668 FILLER_0_101_2891
*669 FILLER_0_101_2897
*670 FILLER_0_101_2899
*671 FILLER_0_101_2911
*672 FILLER_0_101_2923
*673 FILLER_0_101_2935
*674 FILLER_0_101_2947
*675 FILLER_0_101_2953
*676 FILLER_0_101_2955
*677 FILLER_0_101_2967
*678 FILLER_0_101_2979
*679 FILLER_0_101_2991
*680 FILLER_0_101_3
*681 FILLER_0_101_3003
*682 FILLER_0_101_3009
*683 FILLER_0_101_3011
*684 FILLER_0_101_3015
*685 FILLER_0_101_39
*686 FILLER_0_101_51
*687 FILLER_0_101_55
*688 FILLER_0_101_57
*689 FILLER_0_101_69
*690 FILLER_0_101_81
*691 FILLER_0_102_15
*692 FILLER_0_102_1557
*693 FILLER_0_102_1569
*694 FILLER_0_102_1581
*695 FILLER_0_102_1583
*696 FILLER_0_102_1595
*697 FILLER_0_102_1607
*698 FILLER_0_102_1619
*699 FILLER_0_102_1631
*700 FILLER_0_102_1637
*701 FILLER_0_102_1639
*702 FILLER_0_102_1651
*703 FILLER_0_102_1663
*704 FILLER_0_102_1675
*705 FILLER_0_102_1687
*706 FILLER_0_102_1693
*707 FILLER_0_102_1695
*708 FILLER_0_102_1707
*709 FILLER_0_102_1719
*710 FILLER_0_102_1731
*711 FILLER_0_102_1743
*712 FILLER_0_102_1749
*713 FILLER_0_102_1751
*714 FILLER_0_102_1763
*715 FILLER_0_102_1775
*716 FILLER_0_102_1787
*717 FILLER_0_102_1799
*718 FILLER_0_102_1805
*719 FILLER_0_102_1807
*720 FILLER_0_102_1819
*721 FILLER_0_102_1831
*722 FILLER_0_102_1843
*723 FILLER_0_102_1855
*724 FILLER_0_102_1861
*725 FILLER_0_102_1863
*726 FILLER_0_102_1875
*727 FILLER_0_102_1887
*728 FILLER_0_102_1899
*729 FILLER_0_102_1911
*730 FILLER_0_102_1917
*731 FILLER_0_102_1919
*732 FILLER_0_102_1931
*733 FILLER_0_102_1943
*734 FILLER_0_102_1955
*735 FILLER_0_102_1967
*736 FILLER_0_102_1973
*737 FILLER_0_102_1975
*738 FILLER_0_102_1987
*739 FILLER_0_102_1999
*740 FILLER_0_102_2011
*741 FILLER_0_102_2023
*742 FILLER_0_102_2029
*743 FILLER_0_102_2031
*744 FILLER_0_102_2043
*745 FILLER_0_102_2055
*746 FILLER_0_102_2067
*747 FILLER_0_102_2079
*748 FILLER_0_102_2085
*749 FILLER_0_102_2087
*750 FILLER_0_102_2099
*751 FILLER_0_102_2111
*752 FILLER_0_102_2123
*753 FILLER_0_102_2135
*754 FILLER_0_102_2141
*755 FILLER_0_102_2143
*756 FILLER_0_102_2155
*757 FILLER_0_102_2167
*758 FILLER_0_102_2179
*759 FILLER_0_102_2191
*760 FILLER_0_102_2197
*761 FILLER_0_102_2199
*762 FILLER_0_102_2211
*763 FILLER_0_102_2223
*764 FILLER_0_102_2235
*765 FILLER_0_102_2247
*766 FILLER_0_102_2253
*767 FILLER_0_102_2255
*768 FILLER_0_102_2267
*769 FILLER_0_102_2279
*770 FILLER_0_102_2291
*771 FILLER_0_102_2303
*772 FILLER_0_102_2309
*773 FILLER_0_102_2311
*774 FILLER_0_102_2323
*775 FILLER_0_102_2335
*776 FILLER_0_102_2347
*777 FILLER_0_102_2359
*778 FILLER_0_102_2365
*779 FILLER_0_102_2367
*780 FILLER_0_102_2379
*781 FILLER_0_102_2391
*782 FILLER_0_102_2403
*783 FILLER_0_102_2415
*784 FILLER_0_102_2421
*785 FILLER_0_102_2423
*786 FILLER_0_102_2435
*787 FILLER_0_102_2447
*788 FILLER_0_102_2459
*789 FILLER_0_102_2471
*790 FILLER_0_102_2477
*791 FILLER_0_102_2479
*792 FILLER_0_102_2491
*793 FILLER_0_102_2503
*794 FILLER_0_102_2515
*795 FILLER_0_102_2527
*796 FILLER_0_102_2533
*797 FILLER_0_102_2535
*798 FILLER_0_102_2547
*799 FILLER_0_102_2559
*800 FILLER_0_102_2571
*801 FILLER_0_102_2583
*802 FILLER_0_102_2589
*803 FILLER_0_102_2591
*804 FILLER_0_102_2603
*805 FILLER_0_102_2615
*806 FILLER_0_102_2627
*807 FILLER_0_102_2639
*808 FILLER_0_102_2645
*809 FILLER_0_102_2647
*810 FILLER_0_102_2659
*811 FILLER_0_102_2671
*812 FILLER_0_102_2683
*813 FILLER_0_102_2695
*814 FILLER_0_102_27
*815 FILLER_0_102_2701
*816 FILLER_0_102_2703
*817 FILLER_0_102_2715
*818 FILLER_0_102_2727
*819 FILLER_0_102_2739
*820 FILLER_0_102_2751
*821 FILLER_0_102_2757
*822 FILLER_0_102_2759
*823 FILLER_0_102_2771
*824 FILLER_0_102_2783
*825 FILLER_0_102_2795
*826 FILLER_0_102_2807
*827 FILLER_0_102_2813
*828 FILLER_0_102_2815
*829 FILLER_0_102_2827
*830 FILLER_0_102_2839
*831 FILLER_0_102_2851
*832 FILLER_0_102_2863
*833 FILLER_0_102_2869
*834 FILLER_0_102_2871
*835 FILLER_0_102_2883
*836 FILLER_0_102_2895
*837 FILLER_0_102_29
*838 FILLER_0_102_2907
*839 FILLER_0_102_2919
*840 FILLER_0_102_2925
*841 FILLER_0_102_2927
*842 FILLER_0_102_2939
*843 FILLER_0_102_2951
*844 FILLER_0_102_2963
*845 FILLER_0_102_2975
*846 FILLER_0_102_2981
*847 FILLER_0_102_2983
*848 FILLER_0_102_2995
*849 FILLER_0_102_3
*850 FILLER_0_102_3007
*851 FILLER_0_102_3015
*852 FILLER_0_102_41
*853 FILLER_0_102_53
*854 FILLER_0_102_65
*855 FILLER_0_102_77
*856 FILLER_0_102_83
*857 FILLER_0_102_85
*858 FILLER_0_103_15
*859 FILLER_0_103_1557
*860 FILLER_0_103_1569
*861 FILLER_0_103_1581
*862 FILLER_0_103_1593
*863 FILLER_0_103_1605
*864 FILLER_0_103_1609
*865 FILLER_0_103_1611
*866 FILLER_0_103_1623
*867 FILLER_0_103_1635
*868 FILLER_0_103_1647
*869 FILLER_0_103_1659
*870 FILLER_0_103_1665
*871 FILLER_0_103_1667
*872 FILLER_0_103_1679
*873 FILLER_0_103_1691
*874 FILLER_0_103_1703
*875 FILLER_0_103_1715
*876 FILLER_0_103_1721
*877 FILLER_0_103_1723
*878 FILLER_0_103_1735
*879 FILLER_0_103_1747
*880 FILLER_0_103_1759
*881 FILLER_0_103_1771
*882 FILLER_0_103_1777
*883 FILLER_0_103_1779
*884 FILLER_0_103_1791
*885 FILLER_0_103_1803
*886 FILLER_0_103_1815
*887 FILLER_0_103_1827
*888 FILLER_0_103_1833
*889 FILLER_0_103_1835
*890 FILLER_0_103_1847
*891 FILLER_0_103_1859
*892 FILLER_0_103_1871
*893 FILLER_0_103_1883
*894 FILLER_0_103_1889
*895 FILLER_0_103_1891
*896 FILLER_0_103_1903
*897 FILLER_0_103_1915
*898 FILLER_0_103_1927
*899 FILLER_0_103_1939
*900 FILLER_0_103_1945
*901 FILLER_0_103_1947
*902 FILLER_0_103_1959
*903 FILLER_0_103_1971
*904 FILLER_0_103_1983
*905 FILLER_0_103_1995
*906 FILLER_0_103_2001
*907 FILLER_0_103_2003
*908 FILLER_0_103_2015
*909 FILLER_0_103_2027
*910 FILLER_0_103_2039
*911 FILLER_0_103_2051
*912 FILLER_0_103_2057
*913 FILLER_0_103_2059
*914 FILLER_0_103_2071
*915 FILLER_0_103_2083
*916 FILLER_0_103_2095
*917 FILLER_0_103_2107
*918 FILLER_0_103_2113
*919 FILLER_0_103_2115
*920 FILLER_0_103_2127
*921 FILLER_0_103_2139
*922 FILLER_0_103_2151
*923 FILLER_0_103_2163
*924 FILLER_0_103_2169
*925 FILLER_0_103_2171
*926 FILLER_0_103_2183
*927 FILLER_0_103_2195
*928 FILLER_0_103_2207
*929 FILLER_0_103_2219
*930 FILLER_0_103_2225
*931 FILLER_0_103_2227
*932 FILLER_0_103_2239
*933 FILLER_0_103_2251
*934 FILLER_0_103_2263
*935 FILLER_0_103_2275
*936 FILLER_0_103_2281
*937 FILLER_0_103_2283
*938 FILLER_0_103_2295
*939 FILLER_0_103_2307
*940 FILLER_0_103_2319
*941 FILLER_0_103_2331
*942 FILLER_0_103_2337
*943 FILLER_0_103_2339
*944 FILLER_0_103_2351
*945 FILLER_0_103_2363
*946 FILLER_0_103_2375
*947 FILLER_0_103_2387
*948 FILLER_0_103_2393
*949 FILLER_0_103_2395
*950 FILLER_0_103_2407
*951 FILLER_0_103_2419
*952 FILLER_0_103_2431
*953 FILLER_0_103_2443
*954 FILLER_0_103_2449
*955 FILLER_0_103_2451
*956 FILLER_0_103_2463
*957 FILLER_0_103_2475
*958 FILLER_0_103_2487
*959 FILLER_0_103_2499
*960 FILLER_0_103_2505
*961 FILLER_0_103_2507
*962 FILLER_0_103_2519
*963 FILLER_0_103_2531
*964 FILLER_0_103_2543
*965 FILLER_0_103_2555
*966 FILLER_0_103_2561
*967 FILLER_0_103_2563
*968 FILLER_0_103_2575
*969 FILLER_0_103_2587
*970 FILLER_0_103_2599
*971 FILLER_0_103_2611
*972 FILLER_0_103_2617
*973 FILLER_0_103_2619
*974 FILLER_0_103_2631
*975 FILLER_0_103_2643
*976 FILLER_0_103_2655
*977 FILLER_0_103_2667
*978 FILLER_0_103_2673
*979 FILLER_0_103_2675
*980 FILLER_0_103_2687
*981 FILLER_0_103_2699
*982 FILLER_0_103_27
*983 FILLER_0_103_2711
*984 FILLER_0_103_2723
*985 FILLER_0_103_2729
*986 FILLER_0_103_2731
*987 FILLER_0_103_2743
*988 FILLER_0_103_2755
*989 FILLER_0_103_2767
*990 FILLER_0_103_2779
*991 FILLER_0_103_2785
*992 FILLER_0_103_2787
*993 FILLER_0_103_2799
*994 FILLER_0_103_2811
*995 FILLER_0_103_2823
*996 FILLER_0_103_2835
*997 FILLER_0_103_2841
*998 FILLER_0_103_2843
*999 FILLER_0_103_2855
*1000 FILLER_0_103_2867
*1001 FILLER_0_103_2879
*1002 FILLER_0_103_2891
*1003 FILLER_0_103_2897
*1004 FILLER_0_103_2899
*1005 FILLER_0_103_2911
*1006 FILLER_0_103_2923
*1007 FILLER_0_103_2935
*1008 FILLER_0_103_2947
*1009 FILLER_0_103_2953
*1010 FILLER_0_103_2955
*1011 FILLER_0_103_2967
*1012 FILLER_0_103_2979
*1013 FILLER_0_103_2991
*1014 FILLER_0_103_3
*1015 FILLER_0_103_3003
*1016 FILLER_0_103_3009
*1017 FILLER_0_103_3011
*1018 FILLER_0_103_3015
*1019 FILLER_0_103_39
*1020 FILLER_0_103_51
*1021 FILLER_0_103_55
*1022 FILLER_0_103_57
*1023 FILLER_0_103_69
*1024 FILLER_0_103_81
*1025 FILLER_0_104_15
*1026 FILLER_0_104_1557
*1027 FILLER_0_104_1569
*1028 FILLER_0_104_1581
*1029 FILLER_0_104_1583
*1030 FILLER_0_104_1595
*1031 FILLER_0_104_1607
*1032 FILLER_0_104_1619
*1033 FILLER_0_104_1631
*1034 FILLER_0_104_1637
*1035 FILLER_0_104_1639
*1036 FILLER_0_104_1651
*1037 FILLER_0_104_1663
*1038 FILLER_0_104_1675
*1039 FILLER_0_104_1687
*1040 FILLER_0_104_1693
*1041 FILLER_0_104_1695
*1042 FILLER_0_104_1707
*1043 FILLER_0_104_1719
*1044 FILLER_0_104_1731
*1045 FILLER_0_104_1743
*1046 FILLER_0_104_1749
*1047 FILLER_0_104_1751
*1048 FILLER_0_104_1763
*1049 FILLER_0_104_1775
*1050 FILLER_0_104_1787
*1051 FILLER_0_104_1799
*1052 FILLER_0_104_1805
*1053 FILLER_0_104_1807
*1054 FILLER_0_104_1819
*1055 FILLER_0_104_1831
*1056 FILLER_0_104_1843
*1057 FILLER_0_104_1855
*1058 FILLER_0_104_1861
*1059 FILLER_0_104_1863
*1060 FILLER_0_104_1875
*1061 FILLER_0_104_1887
*1062 FILLER_0_104_1899
*1063 FILLER_0_104_1911
*1064 FILLER_0_104_1917
*1065 FILLER_0_104_1919
*1066 FILLER_0_104_1931
*1067 FILLER_0_104_1943
*1068 FILLER_0_104_1955
*1069 FILLER_0_104_1967
*1070 FILLER_0_104_1973
*1071 FILLER_0_104_1975
*1072 FILLER_0_104_1987
*1073 FILLER_0_104_1999
*1074 FILLER_0_104_2011
*1075 FILLER_0_104_2023
*1076 FILLER_0_104_2029
*1077 FILLER_0_104_2031
*1078 FILLER_0_104_2043
*1079 FILLER_0_104_2055
*1080 FILLER_0_104_2067
*1081 FILLER_0_104_2079
*1082 FILLER_0_104_2085
*1083 FILLER_0_104_2087
*1084 FILLER_0_104_2099
*1085 FILLER_0_104_2111
*1086 FILLER_0_104_2123
*1087 FILLER_0_104_2135
*1088 FILLER_0_104_2141
*1089 FILLER_0_104_2143
*1090 FILLER_0_104_2155
*1091 FILLER_0_104_2167
*1092 FILLER_0_104_2179
*1093 FILLER_0_104_2191
*1094 FILLER_0_104_2197
*1095 FILLER_0_104_2199
*1096 FILLER_0_104_2211
*1097 FILLER_0_104_2223
*1098 FILLER_0_104_2235
*1099 FILLER_0_104_2247
*1100 FILLER_0_104_2253
*1101 FILLER_0_104_2255
*1102 FILLER_0_104_2267
*1103 FILLER_0_104_2279
*1104 FILLER_0_104_2291
*1105 FILLER_0_104_2303
*1106 FILLER_0_104_2309
*1107 FILLER_0_104_2311
*1108 FILLER_0_104_2323
*1109 FILLER_0_104_2335
*1110 FILLER_0_104_2347
*1111 FILLER_0_104_2359
*1112 FILLER_0_104_2365
*1113 FILLER_0_104_2367
*1114 FILLER_0_104_2379
*1115 FILLER_0_104_2391
*1116 FILLER_0_104_2403
*1117 FILLER_0_104_2415
*1118 FILLER_0_104_2421
*1119 FILLER_0_104_2423
*1120 FILLER_0_104_2435
*1121 FILLER_0_104_2447
*1122 FILLER_0_104_2459
*1123 FILLER_0_104_2471
*1124 FILLER_0_104_2477
*1125 FILLER_0_104_2479
*1126 FILLER_0_104_2491
*1127 FILLER_0_104_2503
*1128 FILLER_0_104_2515
*1129 FILLER_0_104_2527
*1130 FILLER_0_104_2533
*1131 FILLER_0_104_2535
*1132 FILLER_0_104_2547
*1133 FILLER_0_104_2559
*1134 FILLER_0_104_2571
*1135 FILLER_0_104_2583
*1136 FILLER_0_104_2589
*1137 FILLER_0_104_2591
*1138 FILLER_0_104_2603
*1139 FILLER_0_104_2615
*1140 FILLER_0_104_2627
*1141 FILLER_0_104_2639
*1142 FILLER_0_104_2645
*1143 FILLER_0_104_2647
*1144 FILLER_0_104_2659
*1145 FILLER_0_104_2671
*1146 FILLER_0_104_2683
*1147 FILLER_0_104_2695
*1148 FILLER_0_104_27
*1149 FILLER_0_104_2701
*1150 FILLER_0_104_2703
*1151 FILLER_0_104_2715
*1152 FILLER_0_104_2727
*1153 FILLER_0_104_2739
*1154 FILLER_0_104_2751
*1155 FILLER_0_104_2757
*1156 FILLER_0_104_2759
*1157 FILLER_0_104_2771
*1158 FILLER_0_104_2783
*1159 FILLER_0_104_2795
*1160 FILLER_0_104_2807
*1161 FILLER_0_104_2813
*1162 FILLER_0_104_2815
*1163 FILLER_0_104_2827
*1164 FILLER_0_104_2839
*1165 FILLER_0_104_2851
*1166 FILLER_0_104_2863
*1167 FILLER_0_104_2869
*1168 FILLER_0_104_2871
*1169 FILLER_0_104_2883
*1170 FILLER_0_104_2895
*1171 FILLER_0_104_29
*1172 FILLER_0_104_2907
*1173 FILLER_0_104_2919
*1174 FILLER_0_104_2925
*1175 FILLER_0_104_2927
*1176 FILLER_0_104_2939
*1177 FILLER_0_104_2951
*1178 FILLER_0_104_2963
*1179 FILLER_0_104_2975
*1180 FILLER_0_104_2981
*1181 FILLER_0_104_2983
*1182 FILLER_0_104_2995
*1183 FILLER_0_104_3
*1184 FILLER_0_104_3007
*1185 FILLER_0_104_3015
*1186 FILLER_0_104_41
*1187 FILLER_0_104_53
*1188 FILLER_0_104_65
*1189 FILLER_0_104_77
*1190 FILLER_0_104_83
*1191 FILLER_0_104_85
*1192 FILLER_0_105_15
*1193 FILLER_0_105_1557
*1194 FILLER_0_105_1569
*1195 FILLER_0_105_1581
*1196 FILLER_0_105_1593
*1197 FILLER_0_105_1605
*1198 FILLER_0_105_1609
*1199 FILLER_0_105_1611
*1200 FILLER_0_105_1623
*1201 FILLER_0_105_1635
*1202 FILLER_0_105_1647
*1203 FILLER_0_105_1659
*1204 FILLER_0_105_1665
*1205 FILLER_0_105_1667
*1206 FILLER_0_105_1679
*1207 FILLER_0_105_1691
*1208 FILLER_0_105_1703
*1209 FILLER_0_105_1715
*1210 FILLER_0_105_1721
*1211 FILLER_0_105_1723
*1212 FILLER_0_105_1735
*1213 FILLER_0_105_1747
*1214 FILLER_0_105_1759
*1215 FILLER_0_105_1771
*1216 FILLER_0_105_1777
*1217 FILLER_0_105_1779
*1218 FILLER_0_105_1791
*1219 FILLER_0_105_1803
*1220 FILLER_0_105_1815
*1221 FILLER_0_105_1827
*1222 FILLER_0_105_1833
*1223 FILLER_0_105_1835
*1224 FILLER_0_105_1847
*1225 FILLER_0_105_1859
*1226 FILLER_0_105_1871
*1227 FILLER_0_105_1883
*1228 FILLER_0_105_1889
*1229 FILLER_0_105_1891
*1230 FILLER_0_105_1903
*1231 FILLER_0_105_1915
*1232 FILLER_0_105_1927
*1233 FILLER_0_105_1939
*1234 FILLER_0_105_1945
*1235 FILLER_0_105_1947
*1236 FILLER_0_105_1959
*1237 FILLER_0_105_1971
*1238 FILLER_0_105_1983
*1239 FILLER_0_105_1995
*1240 FILLER_0_105_2001
*1241 FILLER_0_105_2003
*1242 FILLER_0_105_2015
*1243 FILLER_0_105_2027
*1244 FILLER_0_105_2039
*1245 FILLER_0_105_2051
*1246 FILLER_0_105_2057
*1247 FILLER_0_105_2059
*1248 FILLER_0_105_2071
*1249 FILLER_0_105_2083
*1250 FILLER_0_105_2095
*1251 FILLER_0_105_2107
*1252 FILLER_0_105_2113
*1253 FILLER_0_105_2115
*1254 FILLER_0_105_2127
*1255 FILLER_0_105_2139
*1256 FILLER_0_105_2151
*1257 FILLER_0_105_2163
*1258 FILLER_0_105_2169
*1259 FILLER_0_105_2171
*1260 FILLER_0_105_2183
*1261 FILLER_0_105_2195
*1262 FILLER_0_105_2207
*1263 FILLER_0_105_2219
*1264 FILLER_0_105_2225
*1265 FILLER_0_105_2227
*1266 FILLER_0_105_2239
*1267 FILLER_0_105_2251
*1268 FILLER_0_105_2263
*1269 FILLER_0_105_2275
*1270 FILLER_0_105_2281
*1271 FILLER_0_105_2283
*1272 FILLER_0_105_2295
*1273 FILLER_0_105_2307
*1274 FILLER_0_105_2319
*1275 FILLER_0_105_2331
*1276 FILLER_0_105_2337
*1277 FILLER_0_105_2339
*1278 FILLER_0_105_2351
*1279 FILLER_0_105_2363
*1280 FILLER_0_105_2375
*1281 FILLER_0_105_2387
*1282 FILLER_0_105_2393
*1283 FILLER_0_105_2395
*1284 FILLER_0_105_2407
*1285 FILLER_0_105_2419
*1286 FILLER_0_105_2431
*1287 FILLER_0_105_2443
*1288 FILLER_0_105_2449
*1289 FILLER_0_105_2451
*1290 FILLER_0_105_2463
*1291 FILLER_0_105_2475
*1292 FILLER_0_105_2487
*1293 FILLER_0_105_2499
*1294 FILLER_0_105_2505
*1295 FILLER_0_105_2507
*1296 FILLER_0_105_2519
*1297 FILLER_0_105_2531
*1298 FILLER_0_105_2543
*1299 FILLER_0_105_2555
*1300 FILLER_0_105_2561
*1301 FILLER_0_105_2563
*1302 FILLER_0_105_2575
*1303 FILLER_0_105_2587
*1304 FILLER_0_105_2599
*1305 FILLER_0_105_2611
*1306 FILLER_0_105_2617
*1307 FILLER_0_105_2619
*1308 FILLER_0_105_2631
*1309 FILLER_0_105_2643
*1310 FILLER_0_105_2655
*1311 FILLER_0_105_2667
*1312 FILLER_0_105_2673
*1313 FILLER_0_105_2675
*1314 FILLER_0_105_2687
*1315 FILLER_0_105_2699
*1316 FILLER_0_105_27
*1317 FILLER_0_105_2711
*1318 FILLER_0_105_2723
*1319 FILLER_0_105_2729
*1320 FILLER_0_105_2731
*1321 FILLER_0_105_2743
*1322 FILLER_0_105_2755
*1323 FILLER_0_105_2767
*1324 FILLER_0_105_2779
*1325 FILLER_0_105_2785
*1326 FILLER_0_105_2787
*1327 FILLER_0_105_2799