*SPEF "ieee 1481-1999"
*DESIGN "user_proj_example"
*DATE "11:11:11 Fri 11 11, 1111"
*VENDOR "OpenRCX"
*PROGRAM "Parallel Extraction"
*VERSION "1.0"
*DESIGN_FLOW "NAME_SCOPE LOCAL" "PIN_CAP NONE"
*DIVIDER /
*DELIMITER :
*BUS_DELIMITER []
*T_UNIT 1 NS
*C_UNIT 1 PF
*R_UNIT 1 OHM
*L_UNIT 1 HENRY

*NAME_MAP
*1 SEL2
*2 analog_io1
*3 analog_io2
*4 analog_io3
*5 io_in[0]
*6 io_in[1]
*7 io_in[2]
*8 io_in[3]
*9 io_in[4]
*14 net1
*15 net2
*16 net3
*17 net4
*18 net5
*19 ANTENNA_core_flat_AIN1
*20 ANTENNA_core_flat_AIN2
*21 ANTENNA_core_flat_AIN3
*22 ANTENNA_core_flat_DIGITALIN1
*23 ANTENNA_core_flat_DIGITALIN2
*24 ANTENNA_core_flat_DIGITALIN3
*25 ANTENNA_core_flat_SEL1
*26 ANTENNA_core_flat_SEL2
*27 ANTENNA_core_flat_SEL3
*28 FILLER_0_0_1005
*29 FILLER_0_0_1009
*30 FILLER_0_0_1021
*31 FILLER_0_0_1033
*32 FILLER_0_0_1037
*33 FILLER_0_0_1049
*34 FILLER_0_0_1061
*35 FILLER_0_0_1065
*36 FILLER_0_0_1077
*37 FILLER_0_0_1089
*38 FILLER_0_0_109
*39 FILLER_0_0_1093
*40 FILLER_0_0_1105
*41 FILLER_0_0_1117
*42 FILLER_0_0_1121
*43 FILLER_0_0_113
*44 FILLER_0_0_1133
*45 FILLER_0_0_1145
*46 FILLER_0_0_1149
*47 FILLER_0_0_1161
*48 FILLER_0_0_1173
*49 FILLER_0_0_1177
*50 FILLER_0_0_1189
*51 FILLER_0_0_1201
*52 FILLER_0_0_1205
*53 FILLER_0_0_1217
*54 FILLER_0_0_1229
*55 FILLER_0_0_1233
*56 FILLER_0_0_1245
*57 FILLER_0_0_125
*58 FILLER_0_0_1257
*59 FILLER_0_0_1261
*60 FILLER_0_0_1273
*61 FILLER_0_0_1285
*62 FILLER_0_0_1289
*63 FILLER_0_0_1301
*64 FILLER_0_0_1313
*65 FILLER_0_0_1317
*66 FILLER_0_0_1329
*67 FILLER_0_0_1341
*68 FILLER_0_0_1345
*69 FILLER_0_0_1357
*70 FILLER_0_0_1369
*71 FILLER_0_0_137
*72 FILLER_0_0_1373
*73 FILLER_0_0_1385
*74 FILLER_0_0_1397
*75 FILLER_0_0_1401
*76 FILLER_0_0_141
*77 FILLER_0_0_1413
*78 FILLER_0_0_1425
*79 FILLER_0_0_1429
*80 FILLER_0_0_1441
*81 FILLER_0_0_1453
*82 FILLER_0_0_1457
*83 FILLER_0_0_1469
*84 FILLER_0_0_1481
*85 FILLER_0_0_1485
*86 FILLER_0_0_1497
*87 FILLER_0_0_15
*88 FILLER_0_0_1509
*89 FILLER_0_0_1519
*90 FILLER_0_0_153
*91 FILLER_0_0_1531
*92 FILLER_0_0_1539
*93 FILLER_0_0_1541
*94 FILLER_0_0_1553
*95 FILLER_0_0_1565
*96 FILLER_0_0_1569
*97 FILLER_0_0_1581
*98 FILLER_0_0_1593
*99 FILLER_0_0_1597
*100 FILLER_0_0_1609
*101 FILLER_0_0_1621
*102 FILLER_0_0_1625
*103 FILLER_0_0_1637
*104 FILLER_0_0_1649
*105 FILLER_0_0_165
*106 FILLER_0_0_1653
*107 FILLER_0_0_1665
*108 FILLER_0_0_1677
*109 FILLER_0_0_1681
*110 FILLER_0_0_169
*111 FILLER_0_0_1693
*112 FILLER_0_0_1705
*113 FILLER_0_0_1709
*114 FILLER_0_0_1721
*115 FILLER_0_0_1733
*116 FILLER_0_0_1737
*117 FILLER_0_0_1749
*118 FILLER_0_0_1761
*119 FILLER_0_0_1765
*120 FILLER_0_0_1777
*121 FILLER_0_0_1789
*122 FILLER_0_0_1793
*123 FILLER_0_0_1805
*124 FILLER_0_0_181
*125 FILLER_0_0_1817
*126 FILLER_0_0_1821
*127 FILLER_0_0_1833
*128 FILLER_0_0_1845
*129 FILLER_0_0_1849
*130 FILLER_0_0_1861
*131 FILLER_0_0_1873
*132 FILLER_0_0_1877
*133 FILLER_0_0_1889
*134 FILLER_0_0_1901
*135 FILLER_0_0_1905
*136 FILLER_0_0_1917
*137 FILLER_0_0_1929
*138 FILLER_0_0_193
*139 FILLER_0_0_1933
*140 FILLER_0_0_1945
*141 FILLER_0_0_1957
*142 FILLER_0_0_1961
*143 FILLER_0_0_197
*144 FILLER_0_0_1973
*145 FILLER_0_0_1985
*146 FILLER_0_0_1989
*147 FILLER_0_0_2001
*148 FILLER_0_0_2013
*149 FILLER_0_0_2017
*150 FILLER_0_0_2029
*151 FILLER_0_0_2041
*152 FILLER_0_0_2045
*153 FILLER_0_0_2057
*154 FILLER_0_0_2069
*155 FILLER_0_0_2073
*156 FILLER_0_0_2085
*157 FILLER_0_0_209
*158 FILLER_0_0_2097
*159 FILLER_0_0_2101
*160 FILLER_0_0_2113
*161 FILLER_0_0_2117
*162 FILLER_0_0_2124
*163 FILLER_0_0_2129
*164 FILLER_0_0_2141
*165 FILLER_0_0_2153
*166 FILLER_0_0_2157
*167 FILLER_0_0_2169
*168 FILLER_0_0_2181
*169 FILLER_0_0_2185
*170 FILLER_0_0_2197
*171 FILLER_0_0_2209
*172 FILLER_0_0_221
*173 FILLER_0_0_2213
*174 FILLER_0_0_2225
*175 FILLER_0_0_2237
*176 FILLER_0_0_2241
*177 FILLER_0_0_225
*178 FILLER_0_0_2253
*179 FILLER_0_0_2265
*180 FILLER_0_0_2269
*181 FILLER_0_0_2281
*182 FILLER_0_0_2293
*183 FILLER_0_0_2297
*184 FILLER_0_0_2309
*185 FILLER_0_0_2321
*186 FILLER_0_0_2325
*187 FILLER_0_0_2337
*188 FILLER_0_0_2349
*189 FILLER_0_0_2353
*190 FILLER_0_0_2365
*191 FILLER_0_0_237
*192 FILLER_0_0_2377
*193 FILLER_0_0_2381
*194 FILLER_0_0_2393
*195 FILLER_0_0_2405
*196 FILLER_0_0_2409
*197 FILLER_0_0_2421
*198 FILLER_0_0_2433
*199 FILLER_0_0_2437
*200 FILLER_0_0_2449
*201 FILLER_0_0_2461
*202 FILLER_0_0_2465
*203 FILLER_0_0_2477
*204 FILLER_0_0_2489
*205 FILLER_0_0_249
*206 FILLER_0_0_2493
*207 FILLER_0_0_2505
*208 FILLER_0_0_2517
*209 FILLER_0_0_2521
*210 FILLER_0_0_253
*211 FILLER_0_0_2533
*212 FILLER_0_0_2545
*213 FILLER_0_0_2549
*214 FILLER_0_0_2561
*215 FILLER_0_0_2573
*216 FILLER_0_0_2577
*217 FILLER_0_0_2589
*218 FILLER_0_0_2601
*219 FILLER_0_0_2605
*220 FILLER_0_0_2617
*221 FILLER_0_0_2629
*222 FILLER_0_0_2633
*223 FILLER_0_0_2645
*224 FILLER_0_0_265
*225 FILLER_0_0_2657
*226 FILLER_0_0_2661
*227 FILLER_0_0_2673
*228 FILLER_0_0_2685
*229 FILLER_0_0_2689
*230 FILLER_0_0_27
*231 FILLER_0_0_2701
*232 FILLER_0_0_2713
*233 FILLER_0_0_2717
*234 FILLER_0_0_2725
*235 FILLER_0_0_2738
*236 FILLER_0_0_2745
*237 FILLER_0_0_2757
*238 FILLER_0_0_2769
*239 FILLER_0_0_277
*240 FILLER_0_0_2773
*241 FILLER_0_0_2785
*242 FILLER_0_0_2797
*243 FILLER_0_0_2801
*244 FILLER_0_0_281
*245 FILLER_0_0_2813
*246 FILLER_0_0_2825
*247 FILLER_0_0_2829
*248 FILLER_0_0_2841
*249 FILLER_0_0_2853
*250 FILLER_0_0_2857
*251 FILLER_0_0_2869
*252 FILLER_0_0_2881
*253 FILLER_0_0_2885
*254 FILLER_0_0_2897
*255 FILLER_0_0_29
*256 FILLER_0_0_2909
*257 FILLER_0_0_2913
*258 FILLER_0_0_2925
*259 FILLER_0_0_293
*260 FILLER_0_0_2937
*261 FILLER_0_0_2941
*262 FILLER_0_0_2953
*263 FILLER_0_0_2965
*264 FILLER_0_0_2969
*265 FILLER_0_0_298
*266 FILLER_0_0_2981
*267 FILLER_0_0_2993
*268 FILLER_0_0_2997
*269 FILLER_0_0_3
*270 FILLER_0_0_3009
*271 FILLER_0_0_3015
*272 FILLER_0_0_306
*273 FILLER_0_0_309
*274 FILLER_0_0_321
*275 FILLER_0_0_333
*276 FILLER_0_0_337
*277 FILLER_0_0_349
*278 FILLER_0_0_361
*279 FILLER_0_0_365
*280 FILLER_0_0_377
*281 FILLER_0_0_389
*282 FILLER_0_0_393
*283 FILLER_0_0_405
*284 FILLER_0_0_41
*285 FILLER_0_0_417
*286 FILLER_0_0_421
*287 FILLER_0_0_433
*288 FILLER_0_0_445
*289 FILLER_0_0_449
*290 FILLER_0_0_461
*291 FILLER_0_0_473
*292 FILLER_0_0_477
*293 FILLER_0_0_489
*294 FILLER_0_0_501
*295 FILLER_0_0_505
*296 FILLER_0_0_517
*297 FILLER_0_0_529
*298 FILLER_0_0_53
*299 FILLER_0_0_533
*300 FILLER_0_0_545
*301 FILLER_0_0_557
*302 FILLER_0_0_561
*303 FILLER_0_0_57
*304 FILLER_0_0_573
*305 FILLER_0_0_585
*306 FILLER_0_0_589
*307 FILLER_0_0_601
*308 FILLER_0_0_613
*309 FILLER_0_0_617
*310 FILLER_0_0_629
*311 FILLER_0_0_641
*312 FILLER_0_0_645
*313 FILLER_0_0_657
*314 FILLER_0_0_669
*315 FILLER_0_0_673
*316 FILLER_0_0_685
*317 FILLER_0_0_69
*318 FILLER_0_0_697
*319 FILLER_0_0_701
*320 FILLER_0_0_713
*321 FILLER_0_0_725
*322 FILLER_0_0_729
*323 FILLER_0_0_741
*324 FILLER_0_0_753
*325 FILLER_0_0_757
*326 FILLER_0_0_769
*327 FILLER_0_0_781
*328 FILLER_0_0_785
*329 FILLER_0_0_797
*330 FILLER_0_0_809
*331 FILLER_0_0_81
*332 FILLER_0_0_813
*333 FILLER_0_0_825
*334 FILLER_0_0_837
*335 FILLER_0_0_841
*336 FILLER_0_0_85
*337 FILLER_0_0_853
*338 FILLER_0_0_865
*339 FILLER_0_0_869
*340 FILLER_0_0_881
*341 FILLER_0_0_893
*342 FILLER_0_0_897
*343 FILLER_0_0_901
*344 FILLER_0_0_908
*345 FILLER_0_0_920
*346 FILLER_0_0_925
*347 FILLER_0_0_937
*348 FILLER_0_0_949
*349 FILLER_0_0_953
*350 FILLER_0_0_965
*351 FILLER_0_0_97
*352 FILLER_0_0_977
*353 FILLER_0_0_981
*354 FILLER_0_0_993
*355 FILLER_0_100_15
*356 FILLER_0_100_1557
*357 FILLER_0_100_1569
*358 FILLER_0_100_1581
*359 FILLER_0_100_1583
*360 FILLER_0_100_1595
*361 FILLER_0_100_1607
*362 FILLER_0_100_1619
*363 FILLER_0_100_1631
*364 FILLER_0_100_1637
*365 FILLER_0_100_1639
*366 FILLER_0_100_1651
*367 FILLER_0_100_1663
*368 FILLER_0_100_1675
*369 FILLER_0_100_1687
*370 FILLER_0_100_1693
*371 FILLER_0_100_1695
*372 FILLER_0_100_1707
*373 FILLER_0_100_1719
*374 FILLER_0_100_1731
*375 FILLER_0_100_1743
*376 FILLER_0_100_1749
*377 FILLER_0_100_1751
*378 FILLER_0_100_1763
*379 FILLER_0_100_1775
*380 FILLER_0_100_1787
*381 FILLER_0_100_1799
*382 FILLER_0_100_1805
*383 FILLER_0_100_1807
*384 FILLER_0_100_1819
*385 FILLER_0_100_1831
*386 FILLER_0_100_1843
*387 FILLER_0_100_1855
*388 FILLER_0_100_1861
*389 FILLER_0_100_1863
*390 FILLER_0_100_1875
*391 FILLER_0_100_1887
*392 FILLER_0_100_1899
*393 FILLER_0_100_1911
*394 FILLER_0_100_1917
*395 FILLER_0_100_1919
*396 FILLER_0_100_1931
*397 FILLER_0_100_1943
*398 FILLER_0_100_1955
*399 FILLER_0_100_1967
*400 FILLER_0_100_1973
*401 FILLER_0_100_1975
*402 FILLER_0_100_1987
*403 FILLER_0_100_1999
*404 FILLER_0_100_2011
*405 FILLER_0_100_2023
*406 FILLER_0_100_2029
*407 FILLER_0_100_2031
*408 FILLER_0_100_2043
*409 FILLER_0_100_2055
*410 FILLER_0_100_2067
*411 FILLER_0_100_2079
*412 FILLER_0_100_2085
*413 FILLER_0_100_2087
*414 FILLER_0_100_2099
*415 FILLER_0_100_2111
*416 FILLER_0_100_2123
*417 FILLER_0_100_2135
*418 FILLER_0_100_2141
*419 FILLER_0_100_2143
*420 FILLER_0_100_2155
*421 FILLER_0_100_2167
*422 FILLER_0_100_2179
*423 FILLER_0_100_2191
*424 FILLER_0_100_2197
*425 FILLER_0_100_2199
*426 FILLER_0_100_2211
*427 FILLER_0_100_2223
*428 FILLER_0_100_2235
*429 FILLER_0_100_2247
*430 FILLER_0_100_2253
*431 FILLER_0_100_2255
*432 FILLER_0_100_2267
*433 FILLER_0_100_2279
*434 FILLER_0_100_2291
*435 FILLER_0_100_2303
*436 FILLER_0_100_2309
*437 FILLER_0_100_2311
*438 FILLER_0_100_2323
*439 FILLER_0_100_2335
*440 FILLER_0_100_2347
*441 FILLER_0_100_2359
*442 FILLER_0_100_2365
*443 FILLER_0_100_2367
*444 FILLER_0_100_2379
*445 FILLER_0_100_2391
*446 FILLER_0_100_2403
*447 FILLER_0_100_2415
*448 FILLER_0_100_2421
*449 FILLER_0_100_2423
*450 FILLER_0_100_2435
*451 FILLER_0_100_2447
*452 FILLER_0_100_2459
*453 FILLER_0_100_2471
*454 FILLER_0_100_2477
*455 FILLER_0_100_2479
*456 FILLER_0_100_2491
*457 FILLER_0_100_2503
*458 FILLER_0_100_2515
*459 FILLER_0_100_2527
*460 FILLER_0_100_2533
*461 FILLER_0_100_2535
*462 FILLER_0_100_2547
*463 FILLER_0_100_2559
*464 FILLER_0_100_2571
*465 FILLER_0_100_2583
*466 FILLER_0_100_2589
*467 FILLER_0_100_2591
*468 FILLER_0_100_2603
*469 FILLER_0_100_2615
*470 FILLER_0_100_2627
*471 FILLER_0_100_2639
*472 FILLER_0_100_2645
*473 FILLER_0_100_2647
*474 FILLER_0_100_2659
*475 FILLER_0_100_2671
*476 FILLER_0_100_2683
*477 FILLER_0_100_2695
*478 FILLER_0_100_27
*479 FILLER_0_100_2701
*480 FILLER_0_100_2703
*481 FILLER_0_100_2715
*482 FILLER_0_100_2727
*483 FILLER_0_100_2739
*484 FILLER_0_100_2751
*485 FILLER_0_100_2757
*486 FILLER_0_100_2759
*487 FILLER_0_100_2771
*488 FILLER_0_100_2783
*489 FILLER_0_100_2795
*490 FILLER_0_100_2807
*491 FILLER_0_100_2813
*492 FILLER_0_100_2815
*493 FILLER_0_100_2827
*494 FILLER_0_100_2839
*495 FILLER_0_100_2851
*496 FILLER_0_100_2863
*497 FILLER_0_100_2869
*498 FILLER_0_100_2871
*499 FILLER_0_100_2883
*500 FILLER_0_100_2895
*501 FILLER_0_100_29
*502 FILLER_0_100_2907
*503 FILLER_0_100_2919
*504 FILLER_0_100_2925
*505 FILLER_0_100_2927
*506 FILLER_0_100_2939
*507 FILLER_0_100_2951
*508 FILLER_0_100_2963
*509 FILLER_0_100_2975
*510 FILLER_0_100_2981
*511 FILLER_0_100_2983
*512 FILLER_0_100_2995
*513 FILLER_0_100_3
*514 FILLER_0_100_3007
*515 FILLER_0_100_3015
*516 FILLER_0_100_41
*517 FILLER_0_100_53
*518 FILLER_0_100_65
*519 FILLER_0_100_77
*520 FILLER_0_100_83
*521 FILLER_0_100_85
*522 FILLER_0_101_15
*523 FILLER_0_101_1557
*524 FILLER_0_101_1569
*525 FILLER_0_101_1581
*526 FILLER_0_101_1593
*527 FILLER_0_101_1605
*528 FILLER_0_101_1609
*529 FILLER_0_101_1611
*530 FILLER_0_101_1623
*531 FILLER_0_101_1635
*532 FILLER_0_101_1647
*533 FILLER_0_101_1659
*534 FILLER_0_101_1665
*535 FILLER_0_101_1667
*536 FILLER_0_101_1679
*537 FILLER_0_101_1691
*538 FILLER_0_101_1703
*539 FILLER_0_101_1715
*540 FILLER_0_101_1721
*541 FILLER_0_101_1723
*542 FILLER_0_101_1735
*543 FILLER_0_101_1747
*544 FILLER_0_101_1759
*545 FILLER_0_101_1771
*546 FILLER_0_101_1777
*547 FILLER_0_101_1779
*548 FILLER_0_101_1791
*549 FILLER_0_101_1803
*550 FILLER_0_101_1815
*551 FILLER_0_101_1827
*552 FILLER_0_101_1833
*553 FILLER_0_101_1835
*554 FILLER_0_101_1847
*555 FILLER_0_101_1859
*556 FILLER_0_101_1871
*557 FILLER_0_101_1883
*558 FILLER_0_101_1889
*559 FILLER_0_101_1891
*560 FILLER_0_101_1903
*561 FILLER_0_101_1915
*562 FILLER_0_101_1927
*563 FILLER_0_101_1939
*564 FILLER_0_101_1945
*565 FILLER_0_101_1947
*566 FILLER_0_101_1959
*567 FILLER_0_101_1971
*568 FILLER_0_101_1983
*569 FILLER_0_101_1995
*570 FILLER_0_101_2001
*571 FILLER_0_101_2003
*572 FILLER_0_101_2015
*573 FILLER_0_101_2027
*574 FILLER_0_101_2039
*575 FILLER_0_101_2051
*576 FILLER_0_101_2057
*577 FILLER_0_101_2059
*578 FILLER_0_101_2071
*579 FILLER_0_101_2083
*580 FILLER_0_101_2095
*581 FILLER_0_101_2107
*582 FILLER_0_101_2113
*583 FILLER_0_101_2115
*584 FILLER_0_101_2127
*585 FILLER_0_101_2139
*586 FILLER_0_101_2151
*587 FILLER_0_101_2163
*588 FILLER_0_101_2169
*589 FILLER_0_101_2171
*590 FILLER_0_101_2183
*591 FILLER_0_101_2195
*592 FILLER_0_101_2207
*593 FILLER_0_101_2219
*594 FILLER_0_101_2225
*595 FILLER_0_101_2227
*596 FILLER_0_101_2239
*597 FILLER_0_101_2251
*598 FILLER_0_101_2263
*599 FILLER_0_101_2275
*600 FILLER_0_101_2281
*601 FILLER_0_101_2283
*602 FILLER_0_101_2295
*603 FILLER_0_101_2307
*604 FILLER_0_101_2319
*605 FILLER_0_101_2331
*606 FILLER_0_101_2337
*607 FILLER_0_101_2339
*608 FILLER_0_101_2351
*609 FILLER_0_101_2363
*610 FILLER_0_101_2375
*611 FILLER_0_101_2387
*612 FILLER_0_101_2393
*613 FILLER_0_101_2395
*614 FILLER_0_101_2407
*615 FILLER_0_101_2419
*616 FILLER_0_101_2431
*617 FILLER_0_101_2443
*618 FILLER_0_101_2449
*619 FILLER_0_101_2451
*620 FILLER_0_101_2463
*621 FILLER_0_101_2475
*622 FILLER_0_101_2487
*623 FILLER_0_101_2499
*624 FILLER_0_101_2505
*625 FILLER_0_101_2507
*626 FILLER_0_101_2519
*627 FILLER_0_101_2531
*628 FILLER_0_101_2543
*629 FILLER_0_101_2555
*630 FILLER_0_101_2561
*631 FILLER_0_101_2563
*632 FILLER_0_101_2575
*633 FILLER_0_101_2587
*634 FILLER_0_101_2599
*635 FILLER_0_101_2611
*636 FILLER_0_101_2617
*637 FILLER_0_101_2619
*638 FILLER_0_101_2631
*639 FILLER_0_101_2643
*640 FILLER_0_101_2655
*641 FILLER_0_101_2667
*642 FILLER_0_101_2673
*643 FILLER_0_101_2675
*644 FILLER_0_101_2687
*645 FILLER_0_101_2699
*646 FILLER_0_101_27
*647 FILLER_0_101_2711
*648 FILLER_0_101_2723
*649 FILLER_0_101_2729
*650 FILLER_0_101_2731
*651 FILLER_0_101_2743
*652 FILLER_0_101_2755
*653 FILLER_0_101_2767
*654 FILLER_0_101_2779
*655 FILLER_0_101_2785
*656 FILLER_0_101_2787
*657 FILLER_0_101_2799
*658 FILLER_0_101_2811
*659 FILLER_0_101_2823
*660 FILLER_0_101_2835
*661 FILLER_0_101_2841
*662 FILLER_0_101_2843
*663 FILLER_0_101_2855
*664 FILLER_0_101_2867
*665 FILLER_0_101_2879
*666 FILLER_0_101_2891
*667 FILLER_0_101_2897
*668 FILLER_0_101_2899
*669 FILLER_0_101_2911
*670 FILLER_0_101_2923
*671 FILLER_0_101_2935
*672 FILLER_0_101_2947
*673 FILLER_0_101_2953
*674 FILLER_0_101_2955
*675 FILLER_0_101_2967
*676 FILLER_0_101_2979
*677 FILLER_0_101_2991
*678 FILLER_0_101_3
*679 FILLER_0_101_3003
*680 FILLER_0_101_3009
*681 FILLER_0_101_3011
*682 FILLER_0_101_3015
*683 FILLER_0_101_39
*684 FILLER_0_101_51
*685 FILLER_0_101_55
*686 FILLER_0_101_57
*687 FILLER_0_101_69
*688 FILLER_0_101_81
*689 FILLER_0_102_15
*690 FILLER_0_102_1557
*691 FILLER_0_102_1569
*692 FILLER_0_102_1581
*693 FILLER_0_102_1583
*694 FILLER_0_102_1595
*695 FILLER_0_102_1607
*696 FILLER_0_102_1619
*697 FILLER_0_102_1631
*698 FILLER_0_102_1637
*699 FILLER_0_102_1639
*700 FILLER_0_102_1651
*701 FILLER_0_102_1663
*702 FILLER_0_102_1675
*703 FILLER_0_102_1687
*704 FILLER_0_102_1693
*705 FILLER_0_102_1695
*706 FILLER_0_102_1707
*707 FILLER_0_102_1719
*708 FILLER_0_102_1731
*709 FILLER_0_102_1743
*710 FILLER_0_102_1749
*711 FILLER_0_102_1751
*712 FILLER_0_102_1763
*713 FILLER_0_102_1775
*714 FILLER_0_102_1787
*715 FILLER_0_102_1799
*716 FILLER_0_102_1805
*717 FILLER_0_102_1807
*718 FILLER_0_102_1819
*719 FILLER_0_102_1831
*720 FILLER_0_102_1843
*721 FILLER_0_102_1855
*722 FILLER_0_102_1861
*723 FILLER_0_102_1863
*724 FILLER_0_102_1875
*725 FILLER_0_102_1887
*726 FILLER_0_102_1899
*727 FILLER_0_102_1911
*728 FILLER_0_102_1917
*729 FILLER_0_102_1919
*730 FILLER_0_102_1931
*731 FILLER_0_102_1943
*732 FILLER_0_102_1955
*733 FILLER_0_102_1967
*734 FILLER_0_102_1973
*735 FILLER_0_102_1975
*736 FILLER_0_102_1987
*737 FILLER_0_102_1999
*738 FILLER_0_102_2011
*739 FILLER_0_102_2023
*740 FILLER_0_102_2029
*741 FILLER_0_102_2031
*742 FILLER_0_102_2043
*743 FILLER_0_102_2055
*744 FILLER_0_102_2067
*745 FILLER_0_102_2079
*746 FILLER_0_102_2085
*747 FILLER_0_102_2087
*748 FILLER_0_102_2099
*749 FILLER_0_102_2111
*750 FILLER_0_102_2123
*751 FILLER_0_102_2135
*752 FILLER_0_102_2141
*753 FILLER_0_102_2143
*754 FILLER_0_102_2155
*755 FILLER_0_102_2167
*756 FILLER_0_102_2179
*757 FILLER_0_102_2191
*758 FILLER_0_102_2197
*759 FILLER_0_102_2199
*760 FILLER_0_102_2211
*761 FILLER_0_102_2223
*762 FILLER_0_102_2235
*763 FILLER_0_102_2247
*764 FILLER_0_102_2253
*765 FILLER_0_102_2255
*766 FILLER_0_102_2267
*767 FILLER_0_102_2279
*768 FILLER_0_102_2291
*769 FILLER_0_102_2303
*770 FILLER_0_102_2309
*771 FILLER_0_102_2311
*772 FILLER_0_102_2323
*773 FILLER_0_102_2335
*774 FILLER_0_102_2347
*775 FILLER_0_102_2359
*776 FILLER_0_102_2365
*777 FILLER_0_102_2367
*778 FILLER_0_102_2379
*779 FILLER_0_102_2391
*780 FILLER_0_102_2403
*781 FILLER_0_102_2415
*782 FILLER_0_102_2421
*783 FILLER_0_102_2423
*784 FILLER_0_102_2435
*785 FILLER_0_102_2447
*786 FILLER_0_102_2459
*787 FILLER_0_102_2471
*788 FILLER_0_102_2477
*789 FILLER_0_102_2479
*790 FILLER_0_102_2491
*791 FILLER_0_102_2503
*792 FILLER_0_102_2515
*793 FILLER_0_102_2527
*794 FILLER_0_102_2533
*795 FILLER_0_102_2535
*796 FILLER_0_102_2547
*797 FILLER_0_102_2559
*798 FILLER_0_102_2571
*799 FILLER_0_102_2583
*800 FILLER_0_102_2589
*801 FILLER_0_102_2591
*802 FILLER_0_102_2603
*803 FILLER_0_102_2615
*804 FILLER_0_102_2627
*805 FILLER_0_102_2639
*806 FILLER_0_102_2645
*807 FILLER_0_102_2647
*808 FILLER_0_102_2659
*809 FILLER_0_102_2671
*810 FILLER_0_102_2683
*811 FILLER_0_102_2695
*812 FILLER_0_102_27
*813 FILLER_0_102_2701
*814 FILLER_0_102_2703
*815 FILLER_0_102_2715
*816 FILLER_0_102_2727
*817 FILLER_0_102_2739
*818 FILLER_0_102_2751
*819 FILLER_0_102_2757
*820 FILLER_0_102_2759
*821 FILLER_0_102_2771
*822 FILLER_0_102_2783
*823 FILLER_0_102_2795
*824 FILLER_0_102_2807
*825 FILLER_0_102_2813
*826 FILLER_0_102_2815
*827 FILLER_0_102_2827
*828 FILLER_0_102_2839
*829 FILLER_0_102_2851
*830 FILLER_0_102_2863
*831 FILLER_0_102_2869
*832 FILLER_0_102_2871
*833 FILLER_0_102_2883
*834 FILLER_0_102_2895
*835 FILLER_0_102_29
*836 FILLER_0_102_2907
*837 FILLER_0_102_2919
*838 FILLER_0_102_2925
*839 FILLER_0_102_2927
*840 FILLER_0_102_2939
*841 FILLER_0_102_2951
*842 FILLER_0_102_2963
*843 FILLER_0_102_2975
*844 FILLER_0_102_2981
*845 FILLER_0_102_2983
*846 FILLER_0_102_2995
*847 FILLER_0_102_3
*848 FILLER_0_102_3007
*849 FILLER_0_102_3015
*850 FILLER_0_102_41
*851 FILLER_0_102_53
*852 FILLER_0_102_65
*853 FILLER_0_102_77
*854 FILLER_0_102_83
*855 FILLER_0_102_85
*856 FILLER_0_103_15
*857 FILLER_0_103_1557
*858 FILLER_0_103_1569
*859 FILLER_0_103_1581
*860 FILLER_0_103_1593
*861 FILLER_0_103_1605
*862 FILLER_0_103_1609
*863 FILLER_0_103_1611
*864 FILLER_0_103_1623
*865 FILLER_0_103_1635
*866 FILLER_0_103_1647
*867 FILLER_0_103_1659
*868 FILLER_0_103_1665
*869 FILLER_0_103_1667
*870 FILLER_0_103_1679
*871 FILLER_0_103_1691
*872 FILLER_0_103_1703
*873 FILLER_0_103_1715
*874 FILLER_0_103_1721
*875 FILLER_0_103_1723
*876 FILLER_0_103_1735
*877 FILLER_0_103_1747
*878 FILLER_0_103_1759
*879 FILLER_0_103_1771
*880 FILLER_0_103_1777
*881 FILLER_0_103_1779
*882 FILLER_0_103_1791
*883 FILLER_0_103_1803
*884 FILLER_0_103_1815
*885 FILLER_0_103_1827
*886 FILLER_0_103_1833
*887 FILLER_0_103_1835
*888 FILLER_0_103_1847
*889 FILLER_0_103_1859
*890 FILLER_0_103_1871
*891 FILLER_0_103_1883
*892 FILLER_0_103_1889
*893 FILLER_0_103_1891
*894 FILLER_0_103_1903
*895 FILLER_0_103_1915
*896 FILLER_0_103_1927
*897 FILLER_0_103_1939
*898 FILLER_0_103_1945
*899 FILLER_0_103_1947
*900 FILLER_0_103_1959
*901 FILLER_0_103_1971
*902 FILLER_0_103_1983
*903 FILLER_0_103_1995
*904 FILLER_0_103_2001
*905 FILLER_0_103_2003
*906 FILLER_0_103_2015
*907 FILLER_0_103_2027
*908 FILLER_0_103_2039
*909 FILLER_0_103_2051
*910 FILLER_0_103_2057
*911 FILLER_0_103_2059
*912 FILLER_0_103_2071
*913 FILLER_0_103_2083
*914 FILLER_0_103_2095
*915 FILLER_0_103_2107
*916 FILLER_0_103_2113
*917 FILLER_0_103_2115
*918 FILLER_0_103_2127
*919 FILLER_0_103_2139
*920 FILLER_0_103_2151
*921 FILLER_0_103_2163
*922 FILLER_0_103_2169
*923 FILLER_0_103_2171
*924 FILLER_0_103_2183
*925 FILLER_0_103_2195
*926 FILLER_0_103_2207
*927 FILLER_0_103_2219
*928 FILLER_0_103_2225
*929 FILLER_0_103_2227
*930 FILLER_0_103_2239
*931 FILLER_0_103_2251
*932 FILLER_0_103_2263
*933 FILLER_0_103_2275
*934 FILLER_0_103_2281
*935 FILLER_0_103_2283
*936 FILLER_0_103_2295
*937 FILLER_0_103_2307
*938 FILLER_0_103_2319
*939 FILLER_0_103_2331
*940 FILLER_0_103_2337
*941 FILLER_0_103_2339
*942 FILLER_0_103_2351
*943 FILLER_0_103_2363
*944 FILLER_0_103_2375
*945 FILLER_0_103_2387
*946 FILLER_0_103_2393
*947 FILLER_0_103_2395
*948 FILLER_0_103_2407
*949 FILLER_0_103_2419
*950 FILLER_0_103_2431
*951 FILLER_0_103_2443
*952 FILLER_0_103_2449
*953 FILLER_0_103_2451
*954 FILLER_0_103_2463
*955 FILLER_0_103_2475
*956 FILLER_0_103_2487
*957 FILLER_0_103_2499
*958 FILLER_0_103_2505
*959 FILLER_0_103_2507
*960 FILLER_0_103_2519
*961 FILLER_0_103_2531
*962 FILLER_0_103_2543
*963 FILLER_0_103_2555
*964 FILLER_0_103_2561
*965 FILLER_0_103_2563
*966 FILLER_0_103_2575
*967 FILLER_0_103_2587
*968 FILLER_0_103_2599
*969 FILLER_0_103_2611
*970 FILLER_0_103_2617
*971 FILLER_0_103_2619
*972 FILLER_0_103_2631
*973 FILLER_0_103_2643
*974 FILLER_0_103_2655
*975 FILLER_0_103_2667
*976 FILLER_0_103_2673
*977 FILLER_0_103_2675
*978 FILLER_0_103_2687
*979 FILLER_0_103_2699
*980 FILLER_0_103_27
*981 FILLER_0_103_2711
*982 FILLER_0_103_2723
*983 FILLER_0_103_2729
*984 FILLER_0_103_2731
*985 FILLER_0_103_2743
*986 FILLER_0_103_2755
*987 FILLER_0_103_2767
*988 FILLER_0_103_2779
*989 FILLER_0_103_2785
*990 FILLER_0_103_2787
*991 FILLER_0_103_2799
*992 FILLER_0_103_2811
*993 FILLER_0_103_2823
*994 FILLER_0_103_2835
*995 FILLER_0_103_2841
*996 FILLER_0_103_2843
*997 FILLER_0_103_2855
*998 FILLER_0_103_2867
*999 FILLER_0_103_2879
*1000 FILLER_0_103_2891
*1001 FILLER_0_103_2897
*1002 FILLER_0_103_2899
*1003 FILLER_0_103_2911
*1004 FILLER_0_103_2923
*1005 FILLER_0_103_2935
*1006 FILLER_0_103_2947
*1007 FILLER_0_103_2953
*1008 FILLER_0_103_2955
*1009 FILLER_0_103_2967
*1010 FILLER_0_103_2979
*1011 FILLER_0_103_2991
*1012 FILLER_0_103_3
*1013 FILLER_0_103_3003
*1014 FILLER_0_103_3009
*1015 FILLER_0_103_3011
*1016 FILLER_0_103_3015
*1017 FILLER_0_103_39
*1018 FILLER_0_103_51
*1019 FILLER_0_103_55
*1020 FILLER_0_103_57
*1021 FILLER_0_103_69
*1022 FILLER_0_103_81
*1023 FILLER_0_104_15
*1024 FILLER_0_104_1557
*1025 FILLER_0_104_1569
*1026 FILLER_0_104_1581
*1027 FILLER_0_104_1583
*1028 FILLER_0_104_1595
*1029 FILLER_0_104_1607
*1030 FILLER_0_104_1619
*1031 FILLER_0_104_1631
*1032 FILLER_0_104_1637
*1033 FILLER_0_104_1639
*1034 FILLER_0_104_1651
*1035 FILLER_0_104_1663
*1036 FILLER_0_104_1675
*1037 FILLER_0_104_1687
*1038 FILLER_0_104_1693
*1039 FILLER_0_104_1695
*1040 FILLER_0_104_1707
*1041 FILLER_0_104_1719
*1042 FILLER_0_104_1731
*1043 FILLER_0_104_1743
*1044 FILLER_0_104_1749
*1045 FILLER_0_104_1751
*1046 FILLER_0_104_1763
*1047 FILLER_0_104_1775
*1048 FILLER_0_104_1787
*1049 FILLER_0_104_1799
*1050 FILLER_0_104_1805
*1051 FILLER_0_104_1807
*1052 FILLER_0_104_1819
*1053 FILLER_0_104_1831
*1054 FILLER_0_104_1843
*1055 FILLER_0_104_1855
*1056 FILLER_0_104_1861
*1057 FILLER_0_104_1863
*1058 FILLER_0_104_1875
*1059 FILLER_0_104_1887
*1060 FILLER_0_104_1899
*1061 FILLER_0_104_1911
*1062 FILLER_0_104_1917
*1063 FILLER_0_104_1919
*1064 FILLER_0_104_1931
*1065 FILLER_0_104_1943
*1066 FILLER_0_104_1955
*1067 FILLER_0_104_1967
*1068 FILLER_0_104_1973
*1069 FILLER_0_104_1975
*1070 FILLER_0_104_1987
*1071 FILLER_0_104_1999
*1072 FILLER_0_104_2011
*1073 FILLER_0_104_2023
*1074 FILLER_0_104_2029
*1075 FILLER_0_104_2031
*1076 FILLER_0_104_2043
*1077 FILLER_0_104_2055
*1078 FILLER_0_104_2067
*1079 FILLER_0_104_2079
*1080 FILLER_0_104_2085
*1081 FILLER_0_104_2087
*1082 FILLER_0_104_2099
*1083 FILLER_0_104_2111
*1084 FILLER_0_104_2123
*1085 FILLER_0_104_2135
*1086 FILLER_0_104_2141
*1087 FILLER_0_104_2143
*1088 FILLER_0_104_2155
*1089 FILLER_0_104_2167
*1090 FILLER_0_104_2179
*1091 FILLER_0_104_2191
*1092 FILLER_0_104_2197
*1093 FILLER_0_104_2199
*1094 FILLER_0_104_2211
*1095 FILLER_0_104_2223
*1096 FILLER_0_104_2235
*1097 FILLER_0_104_2247
*1098 FILLER_0_104_2253
*1099 FILLER_0_104_2255
*1100 FILLER_0_104_2267
*1101 FILLER_0_104_2279
*1102 FILLER_0_104_2291
*1103 FILLER_0_104_2303
*1104 FILLER_0_104_2309
*1105 FILLER_0_104_2311
*1106 FILLER_0_104_2323
*1107 FILLER_0_104_2335
*1108 FILLER_0_104_2347
*1109 FILLER_0_104_2359
*1110 FILLER_0_104_2365
*1111 FILLER_0_104_2367
*1112 FILLER_0_104_2379
*1113 FILLER_0_104_2391
*1114 FILLER_0_104_2403
*1115 FILLER_0_104_2415
*1116 FILLER_0_104_2421
*1117 FILLER_0_104_2423
*1118 FILLER_0_104_2435
*1119 FILLER_0_104_2447
*1120 FILLER_0_104_2459
*1121 FILLER_0_104_2471
*1122 FILLER_0_104_2477
*1123 FILLER_0_104_2479
*1124 FILLER_0_104_2491
*1125 FILLER_0_104_2503
*1126 FILLER_0_104_2515
*1127 FILLER_0_104_2527
*1128 FILLER_0_104_2533
*1129 FILLER_0_104_2535
*1130 FILLER_0_104_2547
*1131 FILLER_0_104_2559
*1132 FILLER_0_104_2571
*1133 FILLER_0_104_2583
*1134 FILLER_0_104_2589
*1135 FILLER_0_104_2591
*1136 FILLER_0_104_2603
*1137 FILLER_0_104_2615
*1138 FILLER_0_104_2627
*1139 FILLER_0_104_2639
*1140 FILLER_0_104_2645
*1141 FILLER_0_104_2647
*1142 FILLER_0_104_2659
*1143 FILLER_0_104_2671
*1144 FILLER_0_104_2683
*1145 FILLER_0_104_2695
*1146 FILLER_0_104_27
*1147 FILLER_0_104_2701
*1148 FILLER_0_104_2703
*1149 FILLER_0_104_2715
*1150 FILLER_0_104_2727
*1151 FILLER_0_104_2739
*1152 FILLER_0_104_2751
*1153 FILLER_0_104_2757
*1154 FILLER_0_104_2759
*1155 FILLER_0_104_2771
*1156 FILLER_0_104_2783
*1157 FILLER_0_104_2795
*1158 FILLER_0_104_2807
*1159 FILLER_0_104_2813
*1160 FILLER_0_104_2815
*1161 FILLER_0_104_2827
*1162 FILLER_0_104_2839
*1163 FILLER_0_104_2851
*1164 FILLER_0_104_2863
*1165 FILLER_0_104_2869
*1166 FILLER_0_104_2871
*1167 FILLER_0_104_2883
*1168 FILLER_0_104_2895
*1169 FILLER_0_104_29
*1170 FILLER_0_104_2907
*1171 FILLER_0_104_2919
*1172 FILLER_0_104_2925
*1173 FILLER_0_104_2927
*1174 FILLER_0_104_2939
*1175 FILLER_0_104_2951
*1176 FILLER_0_104_2963
*1177 FILLER_0_104_2975
*1178 FILLER_0_104_2981
*1179 FILLER_0_104_2983
*1180 FILLER_0_104_2995
*1181 FILLER_0_104_3
*1182 FILLER_0_104_3007
*1183 FILLER_0_104_3015
*1184 FILLER_0_104_41
*1185 FILLER_0_104_53
*1186 FILLER_0_104_65
*1187 FILLER_0_104_77
*1188 FILLER_0_104_83
*1189 FILLER_0_104_85
*1190 FILLER_0_105_15
*1191 FILLER_0_105_1557
*1192 FILLER_0_105_1569
*1193 FILLER_0_105_1581
*1194 FILLER_0_105_1593
*1195 FILLER_0_105_1605
*1196 FILLER_0_105_1609
*1197 FILLER_0_105_1611
*1198 FILLER_0_105_1623
*1199 FILLER_0_105_1635
*1200 FILLER_0_105_1647
*1201 FILLER_0_105_1659
*1202 FILLER_0_105_1665
*1203 FILLER_0_105_1667
*1204 FILLER_0_105_1679
*1205 FILLER_0_105_1691
*1206 FILLER_0_105_1703
*1207 FILLER_0_105_1715
*1208 FILLER_0_105_1721
*1209 FILLER_0_105_1723
*1210 FILLER_0_105_1735
*1211 FILLER_0_105_1747
*1212 FILLER_0_105_1759
*1213 FILLER_0_105_1771
*1214 FILLER_0_105_1777
*1215 FILLER_0_105_1779
*1216 FILLER_0_105_1791
*1217 FILLER_0_105_1803
*1218 FILLER_0_105_1815
*1219 FILLER_0_105_1827
*1220 FILLER_0_105_1833
*1221 FILLER_0_105_1835
*1222 FILLER_0_105_1847
*1223 FILLER_0_105_1859
*1224 FILLER_0_105_1871
*1225 FILLER_0_105_1883
*1226 FILLER_0_105_1889
*1227 FILLER_0_105_1891
*1228 FILLER_0_105_1903
*1229 FILLER_0_105_1915
*1230 FILLER_0_105_1927
*1231 FILLER_0_105_1939
*1232 FILLER_0_105_1945
*1233 FILLER_0_105_1947
*1234 FILLER_0_105_1959
*1235 FILLER_0_105_1971
*1236 FILLER_0_105_1983
*1237 FILLER_0_105_1995
*1238 FILLER_0_105_2001
*1239 FILLER_0_105_2003
*1240 FILLER_0_105_2015
*1241 FILLER_0_105_2027
*1242 FILLER_0_105_2039
*1243 FILLER_0_105_2051
*1244 FILLER_0_105_2057
*1245 FILLER_0_105_2059
*1246 FILLER_0_105_2071
*1247 FILLER_0_105_2083
*1248 FILLER_0_105_2095
*1249 FILLER_0_105_2107
*1250 FILLER_0_105_2113
*1251 FILLER_0_105_2115
*1252 FILLER_0_105_2127
*1253 FILLER_0_105_2139
*1254 FILLER_0_105_2151
*1255 FILLER_0_105_2163
*1256 FILLER_0_105_2169
*1257 FILLER_0_105_2171
*1258 FILLER_0_105_2183
*1259 FILLER_0_105_2195
*1260 FILLER_0_105_2207
*1261 FILLER_0_105_2219
*1262 FILLER_0_105_2225
*1263 FILLER_0_105_2227
*1264 FILLER_0_105_2239
*1265 FILLER_0_105_2251
*1266 FILLER_0_105_2263
*1267 FILLER_0_105_2275
*1268 FILLER_0_105_2281
*1269 FILLER_0_105_2283
*1270 FILLER_0_105_2295
*1271 FILLER_0_105_2307
*1272 FILLER_0_105_2319
*1273 FILLER_0_105_2331
*1274 FILLER_0_105_2337
*1275 FILLER_0_105_2339
*1276 FILLER_0_105_2351
*1277 FILLER_0_105_2363
*1278 FILLER_0_105_2375
*1279 FILLER_0_105_2387
*1280 FILLER_0_105_2393
*1281 FILLER_0_105_2395
*1282 FILLER_0_105_2407
*1283 FILLER_0_105_2419
*1284 FILLER_0_105_2431
*1285 FILLER_0_105_2443
*1286 FILLER_0_105_2449
*1287 FILLER_0_105_2451
*1288 FILLER_0_105_2463
*1289 FILLER_0_105_2475
*1290 FILLER_0_105_2487
*1291 FILLER_0_105_2499
*1292 FILLER_0_105_2505
*1293 FILLER_0_105_2507
*1294 FILLER_0_105_2519
*1295 FILLER_0_105_2531
*1296 FILLER_0_105_2543
*1297 FILLER_0_105_2555
*1298 FILLER_0_105_2561
*1299 FILLER_0_105_2563
*1300 FILLER_0_105_2575
*1301 FILLER_0_105_2587
*1302 FILLER_0_105_2599
*1303 FILLER_0_105_2611
*1304 FILLER_0_105_2617
*1305 FILLER_0_105_2619
*1306 FILLER_0_105_2631
*1307 FILLER_0_105_2643
*1308 FILLER_0_105_2655
*1309 FILLER_0_105_2667
*1310 FILLER_0_105_2673
*1311 FILLER_0_105_2675
*1312 FILLER_0_105_2687
*1313 FILLER_0_105_2699
*1314 FILLER_0_105_27
*1315 FILLER_0_105_2711
*1316 FILLER_0_105_2723
*1317 FILLER_0_105_2729
*1318 FILLER_0_105_2731
*1319 FILLER_0_105_2743
*1320 FILLER_0_105_2755
*1321 FILLER_0_105_2767
*1322 FILLER_0_105_2779
*1323 FILLER_0_105_2785
*1324 FILLER_0_105_2787
*1325 FILLER_0_105_2799
*1326 FILLER_0_105_2811
*1327 FILLER_0_105_2823