*SPEF "ieee 1481-1999"
*DESIGN "user_proj_example"
*DATE "11:11:11 Fri 11 11, 1111"
*VENDOR "OpenRCX"
*PROGRAM "Parallel Extraction"
*VERSION "1.0"
*DESIGN_FLOW "NAME_SCOPE LOCAL" "PIN_CAP NONE"
*DIVIDER /
*DELIMITER :
*BUS_DELIMITER []
*T_UNIT 1 NS
*C_UNIT 1 PF
*R_UNIT 1 OHM
*L_UNIT 1 HENRY

*NAME_MAP
*1 SEL2
*2 analog_io1
*3 analog_io2
*4 analog_io3
*5 io_in[0]
*6 io_in[1]
*7 io_in[2]
*8 io_in[3]
*9 io_in[4]
*14 net1
*15 net2
*16 net3
*17 net4
*18 net5
*19 net6
*20 ANTENNA_core_flat_v4_AIN2
*21 ANTENNA_core_flat_v4_DIGITALIN1
*22 ANTENNA_core_flat_v4_DIGITALIN2
*23 ANTENNA_core_flat_v4_DIGITALIN3
*24 ANTENNA_core_flat_v4_SEL1
*25 ANTENNA_core_flat_v4_SEL2
*26 ANTENNA_core_flat_v4_SEL3
*27 FILLER_0_0_1005
*28 FILLER_0_0_1009
*29 FILLER_0_0_1021
*30 FILLER_0_0_1033
*31 FILLER_0_0_1037
*32 FILLER_0_0_1049
*33 FILLER_0_0_1061
*34 FILLER_0_0_1065
*35 FILLER_0_0_1077
*36 FILLER_0_0_1089
*37 FILLER_0_0_109
*38 FILLER_0_0_1093
*39 FILLER_0_0_1105
*40 FILLER_0_0_1117
*41 FILLER_0_0_1121
*42 FILLER_0_0_113
*43 FILLER_0_0_1133
*44 FILLER_0_0_1145
*45 FILLER_0_0_1149
*46 FILLER_0_0_1161
*47 FILLER_0_0_1173
*48 FILLER_0_0_1177
*49 FILLER_0_0_1189
*50 FILLER_0_0_1201
*51 FILLER_0_0_1205
*52 FILLER_0_0_1217
*53 FILLER_0_0_1229
*54 FILLER_0_0_1233
*55 FILLER_0_0_1245
*56 FILLER_0_0_125
*57 FILLER_0_0_1257
*58 FILLER_0_0_1261
*59 FILLER_0_0_1273
*60 FILLER_0_0_1285
*61 FILLER_0_0_1289
*62 FILLER_0_0_1301
*63 FILLER_0_0_1313
*64 FILLER_0_0_1317
*65 FILLER_0_0_1329
*66 FILLER_0_0_1341
*67 FILLER_0_0_1345
*68 FILLER_0_0_1357
*69 FILLER_0_0_1369
*70 FILLER_0_0_137
*71 FILLER_0_0_1373
*72 FILLER_0_0_1385
*73 FILLER_0_0_1397
*74 FILLER_0_0_1401
*75 FILLER_0_0_141
*76 FILLER_0_0_1413
*77 FILLER_0_0_1425
*78 FILLER_0_0_1429
*79 FILLER_0_0_1441
*80 FILLER_0_0_1453
*81 FILLER_0_0_1457
*82 FILLER_0_0_1469
*83 FILLER_0_0_1481
*84 FILLER_0_0_1485
*85 FILLER_0_0_1497
*86 FILLER_0_0_15
*87 FILLER_0_0_1509
*88 FILLER_0_0_1517
*89 FILLER_0_0_1529
*90 FILLER_0_0_153
*91 FILLER_0_0_1537
*92 FILLER_0_0_1541
*93 FILLER_0_0_1553
*94 FILLER_0_0_1565
*95 FILLER_0_0_1569
*96 FILLER_0_0_1581
*97 FILLER_0_0_1593
*98 FILLER_0_0_1597
*99 FILLER_0_0_1609
*100 FILLER_0_0_1621
*101 FILLER_0_0_1625
*102 FILLER_0_0_1637
*103 FILLER_0_0_1649
*104 FILLER_0_0_165
*105 FILLER_0_0_1653
*106 FILLER_0_0_1665
*107 FILLER_0_0_1677
*108 FILLER_0_0_1681
*109 FILLER_0_0_169
*110 FILLER_0_0_1693
*111 FILLER_0_0_1705
*112 FILLER_0_0_1709
*113 FILLER_0_0_1721
*114 FILLER_0_0_1733
*115 FILLER_0_0_1737
*116 FILLER_0_0_1749
*117 FILLER_0_0_1761
*118 FILLER_0_0_1765
*119 FILLER_0_0_1777
*120 FILLER_0_0_1789
*121 FILLER_0_0_1793
*122 FILLER_0_0_1805
*123 FILLER_0_0_181
*124 FILLER_0_0_1817
*125 FILLER_0_0_1821
*126 FILLER_0_0_1833
*127 FILLER_0_0_1845
*128 FILLER_0_0_1849
*129 FILLER_0_0_1861
*130 FILLER_0_0_1873
*131 FILLER_0_0_1877
*132 FILLER_0_0_1889
*133 FILLER_0_0_1901
*134 FILLER_0_0_1905
*135 FILLER_0_0_1917
*136 FILLER_0_0_1929
*137 FILLER_0_0_193
*138 FILLER_0_0_1933
*139 FILLER_0_0_1945
*140 FILLER_0_0_1957
*141 FILLER_0_0_1961
*142 FILLER_0_0_197
*143 FILLER_0_0_1973
*144 FILLER_0_0_1985
*145 FILLER_0_0_1989
*146 FILLER_0_0_2001
*147 FILLER_0_0_2013
*148 FILLER_0_0_2017
*149 FILLER_0_0_2029
*150 FILLER_0_0_2041
*151 FILLER_0_0_2045
*152 FILLER_0_0_2057
*153 FILLER_0_0_2069
*154 FILLER_0_0_2073
*155 FILLER_0_0_2085
*156 FILLER_0_0_209
*157 FILLER_0_0_2097
*158 FILLER_0_0_2101
*159 FILLER_0_0_2113
*160 FILLER_0_0_2117
*161 FILLER_0_0_2124
*162 FILLER_0_0_2129
*163 FILLER_0_0_2141
*164 FILLER_0_0_2153
*165 FILLER_0_0_2157
*166 FILLER_0_0_2169
*167 FILLER_0_0_2181
*168 FILLER_0_0_2185
*169 FILLER_0_0_2197
*170 FILLER_0_0_2209
*171 FILLER_0_0_221
*172 FILLER_0_0_2213
*173 FILLER_0_0_2225
*174 FILLER_0_0_2237
*175 FILLER_0_0_2241
*176 FILLER_0_0_225
*177 FILLER_0_0_2253
*178 FILLER_0_0_2265
*179 FILLER_0_0_2269
*180 FILLER_0_0_2281
*181 FILLER_0_0_2293
*182 FILLER_0_0_2297
*183 FILLER_0_0_2309
*184 FILLER_0_0_2321
*185 FILLER_0_0_2325
*186 FILLER_0_0_2337
*187 FILLER_0_0_2349
*188 FILLER_0_0_2353
*189 FILLER_0_0_2365
*190 FILLER_0_0_237
*191 FILLER_0_0_2377
*192 FILLER_0_0_2381
*193 FILLER_0_0_2393
*194 FILLER_0_0_2405
*195 FILLER_0_0_2409
*196 FILLER_0_0_2421
*197 FILLER_0_0_2433
*198 FILLER_0_0_2437
*199 FILLER_0_0_2449
*200 FILLER_0_0_2461
*201 FILLER_0_0_2465
*202 FILLER_0_0_2477
*203 FILLER_0_0_2489
*204 FILLER_0_0_249
*205 FILLER_0_0_2493
*206 FILLER_0_0_2505
*207 FILLER_0_0_2517
*208 FILLER_0_0_2521
*209 FILLER_0_0_253
*210 FILLER_0_0_2533
*211 FILLER_0_0_2545
*212 FILLER_0_0_2549
*213 FILLER_0_0_2561
*214 FILLER_0_0_2573
*215 FILLER_0_0_2577
*216 FILLER_0_0_2589
*217 FILLER_0_0_2601
*218 FILLER_0_0_2605
*219 FILLER_0_0_2617
*220 FILLER_0_0_2629
*221 FILLER_0_0_2633
*222 FILLER_0_0_2645
*223 FILLER_0_0_265
*224 FILLER_0_0_2657
*225 FILLER_0_0_2661
*226 FILLER_0_0_2673
*227 FILLER_0_0_2685
*228 FILLER_0_0_2689
*229 FILLER_0_0_27
*230 FILLER_0_0_2701
*231 FILLER_0_0_2713
*232 FILLER_0_0_2717
*233 FILLER_0_0_2725
*234 FILLER_0_0_2742
*235 FILLER_0_0_2745
*236 FILLER_0_0_2757
*237 FILLER_0_0_2769
*238 FILLER_0_0_277
*239 FILLER_0_0_2773
*240 FILLER_0_0_2785
*241 FILLER_0_0_2797
*242 FILLER_0_0_2801
*243 FILLER_0_0_281
*244 FILLER_0_0_2813
*245 FILLER_0_0_2825
*246 FILLER_0_0_2829
*247 FILLER_0_0_2841
*248 FILLER_0_0_2853
*249 FILLER_0_0_2857
*250 FILLER_0_0_2869
*251 FILLER_0_0_2881
*252 FILLER_0_0_2885
*253 FILLER_0_0_2897
*254 FILLER_0_0_29
*255 FILLER_0_0_2909
*256 FILLER_0_0_2913
*257 FILLER_0_0_2925
*258 FILLER_0_0_293
*259 FILLER_0_0_2937
*260 FILLER_0_0_2941
*261 FILLER_0_0_2953
*262 FILLER_0_0_2965
*263 FILLER_0_0_2969
*264 FILLER_0_0_2981
*265 FILLER_0_0_2993
*266 FILLER_0_0_2997
*267 FILLER_0_0_3
*268 FILLER_0_0_300
*269 FILLER_0_0_3009
*270 FILLER_0_0_3015
*271 FILLER_0_0_309
*272 FILLER_0_0_321
*273 FILLER_0_0_333
*274 FILLER_0_0_337
*275 FILLER_0_0_349
*276 FILLER_0_0_361
*277 FILLER_0_0_365
*278 FILLER_0_0_377
*279 FILLER_0_0_389
*280 FILLER_0_0_393
*281 FILLER_0_0_405
*282 FILLER_0_0_41
*283 FILLER_0_0_417
*284 FILLER_0_0_421
*285 FILLER_0_0_433
*286 FILLER_0_0_445
*287 FILLER_0_0_449
*288 FILLER_0_0_461
*289 FILLER_0_0_473
*290 FILLER_0_0_477
*291 FILLER_0_0_489
*292 FILLER_0_0_501
*293 FILLER_0_0_505
*294 FILLER_0_0_517
*295 FILLER_0_0_529
*296 FILLER_0_0_53
*297 FILLER_0_0_533
*298 FILLER_0_0_545
*299 FILLER_0_0_557
*300 FILLER_0_0_561
*301 FILLER_0_0_57
*302 FILLER_0_0_573
*303 FILLER_0_0_585
*304 FILLER_0_0_589
*305 FILLER_0_0_601
*306 FILLER_0_0_613
*307 FILLER_0_0_617
*308 FILLER_0_0_629
*309 FILLER_0_0_641
*310 FILLER_0_0_645
*311 FILLER_0_0_657
*312 FILLER_0_0_669
*313 FILLER_0_0_673
*314 FILLER_0_0_685
*315 FILLER_0_0_69
*316 FILLER_0_0_697
*317 FILLER_0_0_701
*318 FILLER_0_0_713
*319 FILLER_0_0_725
*320 FILLER_0_0_729
*321 FILLER_0_0_741
*322 FILLER_0_0_753
*323 FILLER_0_0_757
*324 FILLER_0_0_769
*325 FILLER_0_0_781
*326 FILLER_0_0_785
*327 FILLER_0_0_797
*328 FILLER_0_0_809
*329 FILLER_0_0_81
*330 FILLER_0_0_813
*331 FILLER_0_0_825
*332 FILLER_0_0_837
*333 FILLER_0_0_841
*334 FILLER_0_0_85
*335 FILLER_0_0_853
*336 FILLER_0_0_865
*337 FILLER_0_0_869
*338 FILLER_0_0_881
*339 FILLER_0_0_893
*340 FILLER_0_0_897
*341 FILLER_0_0_901
*342 FILLER_0_0_908
*343 FILLER_0_0_920
*344 FILLER_0_0_925
*345 FILLER_0_0_937
*346 FILLER_0_0_949
*347 FILLER_0_0_953
*348 FILLER_0_0_965
*349 FILLER_0_0_97
*350 FILLER_0_0_977
*351 FILLER_0_0_981
*352 FILLER_0_0_993
*353 FILLER_0_100_15
*354 FILLER_0_100_1557
*355 FILLER_0_100_1569
*356 FILLER_0_100_1581
*357 FILLER_0_100_1583
*358 FILLER_0_100_1595
*359 FILLER_0_100_1607
*360 FILLER_0_100_1619
*361 FILLER_0_100_1631
*362 FILLER_0_100_1637
*363 FILLER_0_100_1639
*364 FILLER_0_100_1651
*365 FILLER_0_100_1663
*366 FILLER_0_100_1675
*367 FILLER_0_100_1687
*368 FILLER_0_100_1693
*369 FILLER_0_100_1695
*370 FILLER_0_100_1707
*371 FILLER_0_100_1719
*372 FILLER_0_100_1731
*373 FILLER_0_100_1743
*374 FILLER_0_100_1749
*375 FILLER_0_100_1751
*376 FILLER_0_100_1763
*377 FILLER_0_100_1775
*378 FILLER_0_100_1787
*379 FILLER_0_100_1799
*380 FILLER_0_100_1805
*381 FILLER_0_100_1807
*382 FILLER_0_100_1819
*383 FILLER_0_100_1831
*384 FILLER_0_100_1843
*385 FILLER_0_100_1855
*386 FILLER_0_100_1861
*387 FILLER_0_100_1863
*388 FILLER_0_100_1875
*389 FILLER_0_100_1887
*390 FILLER_0_100_1899
*391 FILLER_0_100_1911
*392 FILLER_0_100_1917
*393 FILLER_0_100_1919
*394 FILLER_0_100_1931
*395 FILLER_0_100_1943
*396 FILLER_0_100_1955
*397 FILLER_0_100_1967
*398 FILLER_0_100_1973
*399 FILLER_0_100_1975
*400 FILLER_0_100_1987
*401 FILLER_0_100_1999
*402 FILLER_0_100_2011
*403 FILLER_0_100_2023
*404 FILLER_0_100_2029
*405 FILLER_0_100_2031
*406 FILLER_0_100_2043
*407 FILLER_0_100_2055
*408 FILLER_0_100_2067
*409 FILLER_0_100_2079
*410 FILLER_0_100_2085
*411 FILLER_0_100_2087
*412 FILLER_0_100_2099
*413 FILLER_0_100_2111
*414 FILLER_0_100_2123
*415 FILLER_0_100_2135
*416 FILLER_0_100_2141
*417 FILLER_0_100_2143
*418 FILLER_0_100_2155
*419 FILLER_0_100_2167
*420 FILLER_0_100_2179
*421 FILLER_0_100_2191
*422 FILLER_0_100_2197
*423 FILLER_0_100_2199
*424 FILLER_0_100_2211
*425 FILLER_0_100_2223
*426 FILLER_0_100_2235
*427 FILLER_0_100_2247
*428 FILLER_0_100_2253
*429 FILLER_0_100_2255
*430 FILLER_0_100_2267
*431 FILLER_0_100_2279
*432 FILLER_0_100_2291
*433 FILLER_0_100_2303
*434 FILLER_0_100_2309
*435 FILLER_0_100_2311
*436 FILLER_0_100_2323
*437 FILLER_0_100_2335
*438 FILLER_0_100_2347
*439 FILLER_0_100_2359
*440 FILLER_0_100_2365
*441 FILLER_0_100_2367
*442 FILLER_0_100_2379
*443 FILLER_0_100_2391
*444 FILLER_0_100_2403
*445 FILLER_0_100_2415
*446 FILLER_0_100_2421
*447 FILLER_0_100_2423
*448 FILLER_0_100_2435
*449 FILLER_0_100_2447
*450 FILLER_0_100_2459
*451 FILLER_0_100_2471
*452 FILLER_0_100_2477
*453 FILLER_0_100_2479
*454 FILLER_0_100_2491
*455 FILLER_0_100_2503
*456 FILLER_0_100_2515
*457 FILLER_0_100_2527
*458 FILLER_0_100_2533
*459 FILLER_0_100_2535
*460 FILLER_0_100_2547
*461 FILLER_0_100_2559
*462 FILLER_0_100_2571
*463 FILLER_0_100_2583
*464 FILLER_0_100_2589
*465 FILLER_0_100_2591
*466 FILLER_0_100_2603
*467 FILLER_0_100_2615
*468 FILLER_0_100_2627
*469 FILLER_0_100_2639
*470 FILLER_0_100_2645
*471 FILLER_0_100_2647
*472 FILLER_0_100_2659
*473 FILLER_0_100_2671
*474 FILLER_0_100_2683
*475 FILLER_0_100_2695
*476 FILLER_0_100_27
*477 FILLER_0_100_2701
*478 FILLER_0_100_2703
*479 FILLER_0_100_2715
*480 FILLER_0_100_2727
*481 FILLER_0_100_2739
*482 FILLER_0_100_2751
*483 FILLER_0_100_2757
*484 FILLER_0_100_2759
*485 FILLER_0_100_2771
*486 FILLER_0_100_2783
*487 FILLER_0_100_2795
*488 FILLER_0_100_2807
*489 FILLER_0_100_2813
*490 FILLER_0_100_2815
*491 FILLER_0_100_2827
*492 FILLER_0_100_2839
*493 FILLER_0_100_2851
*494 FILLER_0_100_2863
*495 FILLER_0_100_2869
*496 FILLER_0_100_2871
*497 FILLER_0_100_2883
*498 FILLER_0_100_2895
*499 FILLER_0_100_29
*500 FILLER_0_100_2907
*501 FILLER_0_100_2919
*502 FILLER_0_100_2925
*503 FILLER_0_100_2927
*504 FILLER_0_100_2939
*505 FILLER_0_100_2951
*506 FILLER_0_100_2963
*507 FILLER_0_100_2975
*508 FILLER_0_100_2981
*509 FILLER_0_100_2983
*510 FILLER_0_100_2995
*511 FILLER_0_100_3
*512 FILLER_0_100_3007
*513 FILLER_0_100_3015
*514 FILLER_0_100_41
*515 FILLER_0_100_53
*516 FILLER_0_100_65
*517 FILLER_0_100_77
*518 FILLER_0_100_83
*519 FILLER_0_100_85
*520 FILLER_0_101_15
*521 FILLER_0_101_1557
*522 FILLER_0_101_1569
*523 FILLER_0_101_1581
*524 FILLER_0_101_1593
*525 FILLER_0_101_1605
*526 FILLER_0_101_1609
*527 FILLER_0_101_1611
*528 FILLER_0_101_1623
*529 FILLER_0_101_1635
*530 FILLER_0_101_1647
*531 FILLER_0_101_1659
*532 FILLER_0_101_1665
*533 FILLER_0_101_1667
*534 FILLER_0_101_1679
*535 FILLER_0_101_1691
*536 FILLER_0_101_1703
*537 FILLER_0_101_1715
*538 FILLER_0_101_1721
*539 FILLER_0_101_1723
*540 FILLER_0_101_1735
*541 FILLER_0_101_1747
*542 FILLER_0_101_1759
*543 FILLER_0_101_1771
*544 FILLER_0_101_1777
*545 FILLER_0_101_1779
*546 FILLER_0_101_1791
*547 FILLER_0_101_1803
*548 FILLER_0_101_1815
*549 FILLER_0_101_1827
*550 FILLER_0_101_1833
*551 FILLER_0_101_1835
*552 FILLER_0_101_1847
*553 FILLER_0_101_1859
*554 FILLER_0_101_1871
*555 FILLER_0_101_1883
*556 FILLER_0_101_1889
*557 FILLER_0_101_1891
*558 FILLER_0_101_1903
*559 FILLER_0_101_1915
*560 FILLER_0_101_1927
*561 FILLER_0_101_1939
*562 FILLER_0_101_1945
*563 FILLER_0_101_1947
*564 FILLER_0_101_1959
*565 FILLER_0_101_1971
*566 FILLER_0_101_1983
*567 FILLER_0_101_1995
*568 FILLER_0_101_2001
*569 FILLER_0_101_2003
*570 FILLER_0_101_2015
*571 FILLER_0_101_2027
*572 FILLER_0_101_2039
*573 FILLER_0_101_2051
*574 FILLER_0_101_2057
*575 FILLER_0_101_2059
*576 FILLER_0_101_2071
*577 FILLER_0_101_2083
*578 FILLER_0_101_2095
*579 FILLER_0_101_2107
*580 FILLER_0_101_2113
*581 FILLER_0_101_2115
*582 FILLER_0_101_2127
*583 FILLER_0_101_2139
*584 FILLER_0_101_2151
*585 FILLER_0_101_2163
*586 FILLER_0_101_2169
*587 FILLER_0_101_2171
*588 FILLER_0_101_2183
*589 FILLER_0_101_2195
*590 FILLER_0_101_2207
*591 FILLER_0_101_2219
*592 FILLER_0_101_2225
*593 FILLER_0_101_2227
*594 FILLER_0_101_2239
*595 FILLER_0_101_2251
*596 FILLER_0_101_2263
*597 FILLER_0_101_2275
*598 FILLER_0_101_2281
*599 FILLER_0_101_2283
*600 FILLER_0_101_2295
*601 FILLER_0_101_2307
*602 FILLER_0_101_2319
*603 FILLER_0_101_2331
*604 FILLER_0_101_2337
*605 FILLER_0_101_2339
*606 FILLER_0_101_2351
*607 FILLER_0_101_2363
*608 FILLER_0_101_2375
*609 FILLER_0_101_2387
*610 FILLER_0_101_2393
*611 FILLER_0_101_2395
*612 FILLER_0_101_2407
*613 FILLER_0_101_2419
*614 FILLER_0_101_2431
*615 FILLER_0_101_2443
*616 FILLER_0_101_2449
*617 FILLER_0_101_2451
*618 FILLER_0_101_2463
*619 FILLER_0_101_2475
*620 FILLER_0_101_2487
*621 FILLER_0_101_2499
*622 FILLER_0_101_2505
*623 FILLER_0_101_2507
*624 FILLER_0_101_2519
*625 FILLER_0_101_2531
*626 FILLER_0_101_2543
*627 FILLER_0_101_2555
*628 FILLER_0_101_2561
*629 FILLER_0_101_2563
*630 FILLER_0_101_2575
*631 FILLER_0_101_2587
*632 FILLER_0_101_2599
*633 FILLER_0_101_2611
*634 FILLER_0_101_2617
*635 FILLER_0_101_2619
*636 FILLER_0_101_2631
*637 FILLER_0_101_2643
*638 FILLER_0_101_2655
*639 FILLER_0_101_2667
*640 FILLER_0_101_2673
*641 FILLER_0_101_2675
*642 FILLER_0_101_2687
*643 FILLER_0_101_2699
*644 FILLER_0_101_27
*645 FILLER_0_101_2711
*646 FILLER_0_101_2723
*647 FILLER_0_101_2729
*648 FILLER_0_101_2731
*649 FILLER_0_101_2743
*650 FILLER_0_101_2755
*651 FILLER_0_101_2767
*652 FILLER_0_101_2779
*653 FILLER_0_101_2785
*654 FILLER_0_101_2787
*655 FILLER_0_101_2799
*656 FILLER_0_101_2811
*657 FILLER_0_101_2823
*658 FILLER_0_101_2835
*659 FILLER_0_101_2841
*660 FILLER_0_101_2843
*661 FILLER_0_101_2855
*662 FILLER_0_101_2867
*663 FILLER_0_101_2879
*664 FILLER_0_101_2891
*665 FILLER_0_101_2897
*666 FILLER_0_101_2899
*667 FILLER_0_101_2911
*668 FILLER_0_101_2923
*669 FILLER_0_101_2935
*670 FILLER_0_101_2947
*671 FILLER_0_101_2953
*672 FILLER_0_101_2955
*673 FILLER_0_101_2967
*674 FILLER_0_101_2979
*675 FILLER_0_101_2991
*676 FILLER_0_101_3
*677 FILLER_0_101_3003
*678 FILLER_0_101_3009
*679 FILLER_0_101_3011
*680 FILLER_0_101_3015
*681 FILLER_0_101_39
*682 FILLER_0_101_51
*683 FILLER_0_101_55
*684 FILLER_0_101_57
*685 FILLER_0_101_69
*686 FILLER_0_101_81
*687 FILLER_0_102_15
*688 FILLER_0_102_1557
*689 FILLER_0_102_1569
*690 FILLER_0_102_1581
*691 FILLER_0_102_1583
*692 FILLER_0_102_1595
*693 FILLER_0_102_1607
*694 FILLER_0_102_1619
*695 FILLER_0_102_1631
*696 FILLER_0_102_1637
*697 FILLER_0_102_1639
*698 FILLER_0_102_1651
*699 FILLER_0_102_1663
*700 FILLER_0_102_1675
*701 FILLER_0_102_1687
*702 FILLER_0_102_1693
*703 FILLER_0_102_1695
*704 FILLER_0_102_1707
*705 FILLER_0_102_1719
*706 FILLER_0_102_1731
*707 FILLER_0_102_1743
*708 FILLER_0_102_1749
*709 FILLER_0_102_1751
*710 FILLER_0_102_1763
*711 FILLER_0_102_1775
*712 FILLER_0_102_1787
*713 FILLER_0_102_1799
*714 FILLER_0_102_1805
*715 FILLER_0_102_1807
*716 FILLER_0_102_1819
*717 FILLER_0_102_1831
*718 FILLER_0_102_1843
*719 FILLER_0_102_1855
*720 FILLER_0_102_1861
*721 FILLER_0_102_1863
*722 FILLER_0_102_1875
*723 FILLER_0_102_1887
*724 FILLER_0_102_1899
*725 FILLER_0_102_1911
*726 FILLER_0_102_1917
*727 FILLER_0_102_1919
*728 FILLER_0_102_1931
*729 FILLER_0_102_1943
*730 FILLER_0_102_1955
*731 FILLER_0_102_1967
*732 FILLER_0_102_1973
*733 FILLER_0_102_1975
*734 FILLER_0_102_1987
*735 FILLER_0_102_1999
*736 FILLER_0_102_2011
*737 FILLER_0_102_2023
*738 FILLER_0_102_2029
*739 FILLER_0_102_2031
*740 FILLER_0_102_2043
*741 FILLER_0_102_2055
*742 FILLER_0_102_2067
*743 FILLER_0_102_2079
*744 FILLER_0_102_2085
*745 FILLER_0_102_2087
*746 FILLER_0_102_2099
*747 FILLER_0_102_2111
*748 FILLER_0_102_2123
*749 FILLER_0_102_2135
*750 FILLER_0_102_2141
*751 FILLER_0_102_2143
*752 FILLER_0_102_2155
*753 FILLER_0_102_2167
*754 FILLER_0_102_2179
*755 FILLER_0_102_2191
*756 FILLER_0_102_2197
*757 FILLER_0_102_2199
*758 FILLER_0_102_2211
*759 FILLER_0_102_2223
*760 FILLER_0_102_2235
*761 FILLER_0_102_2247
*762 FILLER_0_102_2253
*763 FILLER_0_102_2255
*764 FILLER_0_102_2267
*765 FILLER_0_102_2279
*766 FILLER_0_102_2291
*767 FILLER_0_102_2303
*768 FILLER_0_102_2309
*769 FILLER_0_102_2311
*770 FILLER_0_102_2323
*771 FILLER_0_102_2335
*772 FILLER_0_102_2347
*773 FILLER_0_102_2359
*774 FILLER_0_102_2365
*775 FILLER_0_102_2367
*776 FILLER_0_102_2379
*777 FILLER_0_102_2391
*778 FILLER_0_102_2403
*779 FILLER_0_102_2415
*780 FILLER_0_102_2421
*781 FILLER_0_102_2423
*782 FILLER_0_102_2435
*783 FILLER_0_102_2447
*784 FILLER_0_102_2459
*785 FILLER_0_102_2471
*786 FILLER_0_102_2477
*787 FILLER_0_102_2479
*788 FILLER_0_102_2491
*789 FILLER_0_102_2503
*790 FILLER_0_102_2515
*791 FILLER_0_102_2527
*792 FILLER_0_102_2533
*793 FILLER_0_102_2535
*794 FILLER_0_102_2547
*795 FILLER_0_102_2559
*796 FILLER_0_102_2571
*797 FILLER_0_102_2583
*798 FILLER_0_102_2589
*799 FILLER_0_102_2591
*800 FILLER_0_102_2603
*801 FILLER_0_102_2615
*802 FILLER_0_102_2627
*803 FILLER_0_102_2639
*804 FILLER_0_102_2645
*805 FILLER_0_102_2647
*806 FILLER_0_102_2659
*807 FILLER_0_102_2671
*808 FILLER_0_102_2683
*809 FILLER_0_102_2695
*810 FILLER_0_102_27
*811 FILLER_0_102_2701
*812 FILLER_0_102_2703
*813 FILLER_0_102_2715
*814 FILLER_0_102_2727
*815 FILLER_0_102_2739
*816 FILLER_0_102_2751
*817 FILLER_0_102_2757
*818 FILLER_0_102_2759
*819 FILLER_0_102_2771
*820 FILLER_0_102_2783
*821 FILLER_0_102_2795
*822 FILLER_0_102_2807
*823 FILLER_0_102_2813
*824 FILLER_0_102_2815
*825 FILLER_0_102_2827
*826 FILLER_0_102_2839
*827 FILLER_0_102_2851
*828 FILLER_0_102_2863
*829 FILLER_0_102_2869
*830 FILLER_0_102_2871
*831 FILLER_0_102_2883
*832 FILLER_0_102_2895
*833 FILLER_0_102_29
*834 FILLER_0_102_2907
*835 FILLER_0_102_2919
*836 FILLER_0_102_2925
*837 FILLER_0_102_2927
*838 FILLER_0_102_2939
*839 FILLER_0_102_2951
*840 FILLER_0_102_2963
*841 FILLER_0_102_2975
*842 FILLER_0_102_2981
*843 FILLER_0_102_2983
*844 FILLER_0_102_2995
*845 FILLER_0_102_3
*846 FILLER_0_102_3007
*847 FILLER_0_102_3015
*848 FILLER_0_102_41
*849 FILLER_0_102_53
*850 FILLER_0_102_65
*851 FILLER_0_102_77
*852 FILLER_0_102_83
*853 FILLER_0_102_85
*854 FILLER_0_103_15
*855 FILLER_0_103_1557
*856 FILLER_0_103_1569
*857 FILLER_0_103_1581
*858 FILLER_0_103_1593
*859 FILLER_0_103_1605
*860 FILLER_0_103_1609
*861 FILLER_0_103_1611
*862 FILLER_0_103_1623
*863 FILLER_0_103_1635
*864 FILLER_0_103_1647
*865 FILLER_0_103_1659
*866 FILLER_0_103_1665
*867 FILLER_0_103_1667
*868 FILLER_0_103_1679
*869 FILLER_0_103_1691
*870 FILLER_0_103_1703
*871 FILLER_0_103_1715
*872 FILLER_0_103_1721
*873 FILLER_0_103_1723
*874 FILLER_0_103_1735
*875 FILLER_0_103_1747
*876 FILLER_0_103_1759
*877 FILLER_0_103_1771
*878 FILLER_0_103_1777
*879 FILLER_0_103_1779
*880 FILLER_0_103_1791
*881 FILLER_0_103_1803
*882 FILLER_0_103_1815
*883 FILLER_0_103_1827
*884 FILLER_0_103_1833
*885 FILLER_0_103_1835
*886 FILLER_0_103_1847
*887 FILLER_0_103_1859
*888 FILLER_0_103_1871
*889 FILLER_0_103_1883
*890 FILLER_0_103_1889
*891 FILLER_0_103_1891
*892 FILLER_0_103_1903
*893 FILLER_0_103_1915
*894 FILLER_0_103_1927
*895 FILLER_0_103_1939
*896 FILLER_0_103_1945
*897 FILLER_0_103_1947
*898 FILLER_0_103_1959
*899 FILLER_0_103_1971
*900 FILLER_0_103_1983
*901 FILLER_0_103_1995
*902 FILLER_0_103_2001
*903 FILLER_0_103_2003
*904 FILLER_0_103_2015
*905 FILLER_0_103_2027
*906 FILLER_0_103_2039
*907 FILLER_0_103_2051
*908 FILLER_0_103_2057
*909 FILLER_0_103_2059
*910 FILLER_0_103_2071
*911 FILLER_0_103_2083
*912 FILLER_0_103_2095
*913 FILLER_0_103_2107
*914 FILLER_0_103_2113
*915 FILLER_0_103_2115
*916 FILLER_0_103_2127
*917 FILLER_0_103_2139
*918 FILLER_0_103_2151
*919 FILLER_0_103_2163
*920 FILLER_0_103_2169
*921 FILLER_0_103_2171
*922 FILLER_0_103_2183
*923 FILLER_0_103_2195
*924 FILLER_0_103_2207
*925 FILLER_0_103_2219
*926 FILLER_0_103_2225
*927 FILLER_0_103_2227
*928 FILLER_0_103_2239
*929 FILLER_0_103_2251
*930 FILLER_0_103_2263
*931 FILLER_0_103_2275
*932 FILLER_0_103_2281
*933 FILLER_0_103_2283
*934 FILLER_0_103_2295
*935 FILLER_0_103_2307
*936 FILLER_0_103_2319
*937 FILLER_0_103_2331
*938 FILLER_0_103_2337
*939 FILLER_0_103_2339
*940 FILLER_0_103_2351
*941 FILLER_0_103_2363
*942 FILLER_0_103_2375
*943 FILLER_0_103_2387
*944 FILLER_0_103_2393
*945 FILLER_0_103_2395
*946 FILLER_0_103_2407
*947 FILLER_0_103_2419
*948 FILLER_0_103_2431
*949 FILLER_0_103_2443
*950 FILLER_0_103_2449
*951 FILLER_0_103_2451
*952 FILLER_0_103_2463
*953 FILLER_0_103_2475
*954 FILLER_0_103_2487
*955 FILLER_0_103_2499
*956 FILLER_0_103_2505
*957 FILLER_0_103_2507
*958 FILLER_0_103_2519
*959 FILLER_0_103_2531
*960 FILLER_0_103_2543
*961 FILLER_0_103_2555
*962 FILLER_0_103_2561
*963 FILLER_0_103_2563
*964 FILLER_0_103_2575
*965 FILLER_0_103_2587
*966 FILLER_0_103_2599
*967 FILLER_0_103_2611
*968 FILLER_0_103_2617
*969 FILLER_0_103_2619
*970 FILLER_0_103_2631
*971 FILLER_0_103_2643
*972 FILLER_0_103_2655
*973 FILLER_0_103_2667
*974 FILLER_0_103_2673
*975 FILLER_0_103_2675
*976 FILLER_0_103_2687
*977 FILLER_0_103_2699
*978 FILLER_0_103_27
*979 FILLER_0_103_2711
*980 FILLER_0_103_2723
*981 FILLER_0_103_2729
*982 FILLER_0_103_2731
*983 FILLER_0_103_2743
*984 FILLER_0_103_2755
*985 FILLER_0_103_2767
*986 FILLER_0_103_2779
*987 FILLER_0_103_2785
*988 FILLER_0_103_2787
*989 FILLER_0_103_2799
*990 FILLER_0_103_2811
*991 FILLER_0_103_2823
*992 FILLER_0_103_2835
*993 FILLER_0_103_2841
*994 FILLER_0_103_2843
*995 FILLER_0_103_2855
*996 FILLER_0_103_2867
*997 FILLER_0_103_2879
*998 FILLER_0_103_2891
*999 FILLER_0_103_2897
*1000 FILLER_0_103_2899
*1001 FILLER_0_103_2911
*1002 FILLER_0_103_2923
*1003 FILLER_0_103_2935
*1004 FILLER_0_103_2947
*1005 FILLER_0_103_2953
*1006 FILLER_0_103_2955
*1007 FILLER_0_103_2967
*1008 FILLER_0_103_2979
*1009 FILLER_0_103_2991
*1010 FILLER_0_103_3
*1011 FILLER_0_103_3003
*1012 FILLER_0_103_3009
*1013 FILLER_0_103_3011
*1014 FILLER_0_103_3015
*1015 FILLER_0_103_39
*1016 FILLER_0_103_51
*1017 FILLER_0_103_55
*1018 FILLER_0_103_57
*1019 FILLER_0_103_69
*1020 FILLER_0_103_81
*1021 FILLER_0_104_15
*1022 FILLER_0_104_1557
*1023 FILLER_0_104_1569
*1024 FILLER_0_104_1581
*1025 FILLER_0_104_1583
*1026 FILLER_0_104_1595
*1027 FILLER_0_104_1607
*1028 FILLER_0_104_1619
*1029 FILLER_0_104_1631
*1030 FILLER_0_104_1637
*1031 FILLER_0_104_1639
*1032 FILLER_0_104_1651
*1033 FILLER_0_104_1663
*1034 FILLER_0_104_1675
*1035 FILLER_0_104_1687
*1036 FILLER_0_104_1693
*1037 FILLER_0_104_1695
*1038 FILLER_0_104_1707
*1039 FILLER_0_104_1719
*1040 FILLER_0_104_1731
*1041 FILLER_0_104_1743
*1042 FILLER_0_104_1749
*1043 FILLER_0_104_1751
*1044 FILLER_0_104_1763
*1045 FILLER_0_104_1775
*1046 FILLER_0_104_1787
*1047 FILLER_0_104_1799
*1048 FILLER_0_104_1805
*1049 FILLER_0_104_1807
*1050 FILLER_0_104_1819
*1051 FILLER_0_104_1831
*1052 FILLER_0_104_1843
*1053 FILLER_0_104_1855
*1054 FILLER_0_104_1861
*1055 FILLER_0_104_1863
*1056 FILLER_0_104_1875
*1057 FILLER_0_104_1887
*1058 FILLER_0_104_1899
*1059 FILLER_0_104_1911
*1060 FILLER_0_104_1917
*1061 FILLER_0_104_1919
*1062 FILLER_0_104_1931
*1063 FILLER_0_104_1943
*1064 FILLER_0_104_1955
*1065 FILLER_0_104_1967
*1066 FILLER_0_104_1973
*1067 FILLER_0_104_1975
*1068 FILLER_0_104_1987
*1069 FILLER_0_104_1999
*1070 FILLER_0_104_2011
*1071 FILLER_0_104_2023
*1072 FILLER_0_104_2029
*1073 FILLER_0_104_2031
*1074 FILLER_0_104_2043
*1075 FILLER_0_104_2055
*1076 FILLER_0_104_2067
*1077 FILLER_0_104_2079
*1078 FILLER_0_104_2085
*1079 FILLER_0_104_2087
*1080 FILLER_0_104_2099
*1081 FILLER_0_104_2111
*1082 FILLER_0_104_2123
*1083 FILLER_0_104_2135
*1084 FILLER_0_104_2141
*1085 FILLER_0_104_2143
*1086 FILLER_0_104_2155
*1087 FILLER_0_104_2167
*1088 FILLER_0_104_2179
*1089 FILLER_0_104_2191
*1090 FILLER_0_104_2197
*1091 FILLER_0_104_2199
*1092 FILLER_0_104_2211
*1093 FILLER_0_104_2223
*1094 FILLER_0_104_2235
*1095 FILLER_0_104_2247
*1096 FILLER_0_104_2253
*1097 FILLER_0_104_2255
*1098 FILLER_0_104_2267
*1099 FILLER_0_104_2279
*1100 FILLER_0_104_2291
*1101 FILLER_0_104_2303
*1102 FILLER_0_104_2309
*1103 FILLER_0_104_2311
*1104 FILLER_0_104_2323
*1105 FILLER_0_104_2335
*1106 FILLER_0_104_2347
*1107 FILLER_0_104_2359
*1108 FILLER_0_104_2365
*1109 FILLER_0_104_2367
*1110 FILLER_0_104_2379
*1111 FILLER_0_104_2391
*1112 FILLER_0_104_2403
*1113 FILLER_0_104_2415
*1114 FILLER_0_104_2421
*1115 FILLER_0_104_2423
*1116 FILLER_0_104_2435
*1117 FILLER_0_104_2447
*1118 FILLER_0_104_2459
*1119 FILLER_0_104_2471
*1120 FILLER_0_104_2477
*1121 FILLER_0_104_2479
*1122 FILLER_0_104_2491
*1123 FILLER_0_104_2503
*1124 FILLER_0_104_2515
*1125 FILLER_0_104_2527
*1126 FILLER_0_104_2533
*1127 FILLER_0_104_2535
*1128 FILLER_0_104_2547
*1129 FILLER_0_104_2559
*1130 FILLER_0_104_2571
*1131 FILLER_0_104_2583
*1132 FILLER_0_104_2589
*1133 FILLER_0_104_2591
*1134 FILLER_0_104_2603
*1135 FILLER_0_104_2615
*1136 FILLER_0_104_2627
*1137 FILLER_0_104_2639
*1138 FILLER_0_104_2645
*1139 FILLER_0_104_2647
*1140 FILLER_0_104_2659
*1141 FILLER_0_104_2671
*1142 FILLER_0_104_2683
*1143 FILLER_0_104_2695
*1144 FILLER_0_104_27
*1145 FILLER_0_104_2701
*1146 FILLER_0_104_2703
*1147 FILLER_0_104_2715
*1148 FILLER_0_104_2727
*1149 FILLER_0_104_2739
*1150 FILLER_0_104_2751
*1151 FILLER_0_104_2757
*1152 FILLER_0_104_2759
*1153 FILLER_0_104_2771
*1154 FILLER_0_104_2783
*1155 FILLER_0_104_2795
*1156 FILLER_0_104_2807
*1157 FILLER_0_104_2813
*1158 FILLER_0_104_2815
*1159 FILLER_0_104_2827
*1160 FILLER_0_104_2839
*1161 FILLER_0_104_2851
*1162 FILLER_0_104_2863
*1163 FILLER_0_104_2869
*1164 FILLER_0_104_2871
*1165 FILLER_0_104_2883
*1166 FILLER_0_104_2895
*1167 FILLER_0_104_29
*1168 FILLER_0_104_2907
*1169 FILLER_0_104_2919
*1170 FILLER_0_104_2925
*1171 FILLER_0_104_2927
*1172 FILLER_0_104_2939
*1173 FILLER_0_104_2951
*1174 FILLER_0_104_2963
*1175 FILLER_0_104_2975
*1176 FILLER_0_104_2981
*1177 FILLER_0_104_2983
*1178 FILLER_0_104_2995
*1179 FILLER_0_104_3
*1180 FILLER_0_104_3007
*1181 FILLER_0_104_3015
*1182 FILLER_0_104_41
*1183 FILLER_0_104_53
*1184 FILLER_0_104_65
*1185 FILLER_0_104_77
*1186 FILLER_0_104_83
*1187 FILLER_0_104_85
*1188 FILLER_0_105_15
*1189 FILLER_0_105_1557
*1190 FILLER_0_105_1569
*1191 FILLER_0_105_1581
*1192 FILLER_0_105_1593
*1193 FILLER_0_105_1605
*1194 FILLER_0_105_1609
*1195 FILLER_0_105_1611
*1196 FILLER_0_105_1623
*1197 FILLER_0_105_1635
*1198 FILLER_0_105_1647
*1199 FILLER_0_105_1659
*1200 FILLER_0_105_1665
*1201 FILLER_0_105_1667
*1202 FILLER_0_105_1679
*1203 FILLER_0_105_1691
*1204 FILLER_0_105_1703
*1205 FILLER_0_105_1715
*1206 FILLER_0_105_1721
*1207 FILLER_0_105_1723
*1208 FILLER_0_105_1735
*1209 FILLER_0_105_1747
*1210 FILLER_0_105_1759
*1211 FILLER_0_105_1771
*1212 FILLER_0_105_1777
*1213 FILLER_0_105_1779
*1214 FILLER_0_105_1791
*1215 FILLER_0_105_1803
*1216 FILLER_0_105_1815
*1217 FILLER_0_105_1827
*1218 FILLER_0_105_1833
*1219 FILLER_0_105_1835
*1220 FILLER_0_105_1847
*1221 FILLER_0_105_1859
*1222 FILLER_0_105_1871
*1223 FILLER_0_105_1883
*1224 FILLER_0_105_1889
*1225 FILLER_0_105_1891
*1226 FILLER_0_105_1903
*1227 FILLER_0_105_1915
*1228 FILLER_0_105_1927
*1229 FILLER_0_105_1939
*1230 FILLER_0_105_1945
*1231 FILLER_0_105_1947
*1232 FILLER_0_105_1959
*1233 FILLER_0_105_1971
*1234 FILLER_0_105_1983
*1235 FILLER_0_105_1995
*1236 FILLER_0_105_2001
*1237 FILLER_0_105_2003
*1238 FILLER_0_105_2015
*1239 FILLER_0_105_2027
*1240 FILLER_0_105_2039
*1241 FILLER_0_105_2051
*1242 FILLER_0_105_2057
*1243 FILLER_0_105_2059
*1244 FILLER_0_105_2071
*1245 FILLER_0_105_2083
*1246 FILLER_0_105_2095
*1247 FILLER_0_105_2107
*1248 FILLER_0_105_2113
*1249 FILLER_0_105_2115
*1250 FILLER_0_105_2127
*1251 FILLER_0_105_2139
*1252 FILLER_0_105_2151
*1253 FILLER_0_105_2163
*1254 FILLER_0_105_2169
*1255 FILLER_0_105_2171
*1256 FILLER_0_105_2183
*1257 FILLER_0_105_2195
*1258 FILLER_0_105_2207
*1259 FILLER_0_105_2219
*1260 FILLER_0_105_2225
*1261 FILLER_0_105_2227
*1262 FILLER_0_105_2239
*1263 FILLER_0_105_2251
*1264 FILLER_0_105_2263
*1265 FILLER_0_105_2275
*1266 FILLER_0_105_2281
*1267 FILLER_0_105_2283
*1268 FILLER_0_105_2295
*1269 FILLER_0_105_2307
*1270 FILLER_0_105_2319
*1271 FILLER_0_105_2331
*1272 FILLER_0_105_2337
*1273 FILLER_0_105_2339
*1274 FILLER_0_105_2351
*1275 FILLER_0_105_2363
*1276 FILLER_0_105_2375
*1277 FILLER_0_105_2387
*1278 FILLER_0_105_2393
*1279 FILLER_0_105_2395
*1280 FILLER_0_105_2407
*1281 FILLER_0_105_2419
*1282 FILLER_0_105_2431
*1283 FILLER_0_105_2443
*1284 FILLER_0_105_2449
*1285 FILLER_0_105_2451
*1286 FILLER_0_105_2463
*1287 FILLER_0_105_2475
*1288 FILLER_0_105_2487
*1289 FILLER_0_105_2499
*1290 FILLER_0_105_2505
*1291 FILLER_0_105_2507
*1292 FILLER_0_105_2519
*1293 FILLER_0_105_2531
*1294 FILLER_0_105_2543
*1295 FILLER_0_105_2555
*1296 FILLER_0_105_2561
*1297 FILLER_0_105_2563
*1298 FILLER_0_105_2575
*1299 FILLER_0_105_2587
*1300 FILLER_0_105_2599
*1301 FILLER_0_105_2611
*1302 FILLER_0_105_2617
*1303 FILLER_0_105_2619
*1304 FILLER_0_105_2631
*1305 FILLER_0_105_2643
*1306 FILLER_0_105_2655
*1307 FILLER_0_105_2667
*1308 FILLER_0_105_2673
*1309 FILLER_0_105_2675
*1310 FILLER_0_105_2687
*1311 FILLER_0_105_2699
*1312 FILLER_0_105_27
*1313 FILLER_0_105_2711
*1314 FILLER_0_105_2723
*1315 FILLER_0_105_2729
*1316 FILLER_0_105_2731
*1317 FILLER_0_105_2743
*1318 FILLER_0_105_2755
*1319 FILLER_0_105_2767
*1320 FILLER_0_105_2779
*1321 FILLER_0_105_2785
*1322 FILLER_0_105_2787
*1323 FILLER_0_105_2799
*1324 FILLER_0_105_2811
*1325 FILLER_0_105_2823
*1326 FILLER_0_105_2835
*1327 FILLER_0_105_2841