*SPEF "ieee 1481-1999"
*DESIGN "user_proj_example"
*DATE "11:11:11 Fri 11 11, 1111"
*VENDOR "OpenRCX"
*PROGRAM "Parallel Extraction"
*VERSION "1.0"
*DESIGN_FLOW "NAME_SCOPE LOCAL" "PIN_CAP NONE"
*DIVIDER /
*DELIMITER :
*BUS_DELIMITER []
*T_UNIT 1 NS
*C_UNIT 1 PF
*R_UNIT 1 OHM
*L_UNIT 1 HENRY

*NAME_MAP
*1 SEL2
*2 analog_io1
*3 analog_io2
*4 analog_io3
*5 io_in[0]
*6 io_in[1]
*7 io_in[2]
*8 io_in[3]
*9 io_in[4]
*10 net7
*11 net8
*12 net9
*13 net10
*14 net11
*15 net12
*16 net13
*17 net14
*18 net15
*23 net1
*24 net2
*25 net3
*26 net4
*27 net5
*28 net6
*29 ANTENNA_core_flat_v4_AIN1
*30 ANTENNA_core_flat_v4_AIN2
*31 ANTENNA_core_flat_v4_AIN3
*32 ANTENNA_core_flat_v4_DIGITALIN1
*33 ANTENNA_core_flat_v4_DIGITALIN2
*34 ANTENNA_core_flat_v4_DIGITALIN3
*35 ANTENNA_core_flat_v4_SEL1
*36 ANTENNA_core_flat_v4_SEL2
*37 ANTENNA_core_flat_v4_SEL3
*38 FILLER_0_0_100
*39 FILLER_0_0_1005
*40 FILLER_0_0_1009
*41 FILLER_0_0_1021
*42 FILLER_0_0_1033
*43 FILLER_0_0_1037
*44 FILLER_0_0_1049
*45 FILLER_0_0_1061
*46 FILLER_0_0_1065
*47 FILLER_0_0_1077
*48 FILLER_0_0_1089
*49 FILLER_0_0_1093
*50 FILLER_0_0_1105
*51 FILLER_0_0_1112
*52 FILLER_0_0_1121
*53 FILLER_0_0_113
*54 FILLER_0_0_1133
*55 FILLER_0_0_1145
*56 FILLER_0_0_1149
*57 FILLER_0_0_1161
*58 FILLER_0_0_1173
*59 FILLER_0_0_1177
*60 FILLER_0_0_1189
*61 FILLER_0_0_1201
*62 FILLER_0_0_1205
*63 FILLER_0_0_1217
*64 FILLER_0_0_1229
*65 FILLER_0_0_1233
*66 FILLER_0_0_1245
*67 FILLER_0_0_125
*68 FILLER_0_0_1257
*69 FILLER_0_0_1261
*70 FILLER_0_0_1273
*71 FILLER_0_0_1285
*72 FILLER_0_0_1289
*73 FILLER_0_0_1301
*74 FILLER_0_0_1307
*75 FILLER_0_0_1311
*76 FILLER_0_0_1315
*77 FILLER_0_0_1317
*78 FILLER_0_0_1329
*79 FILLER_0_0_1341
*80 FILLER_0_0_1345
*81 FILLER_0_0_1357
*82 FILLER_0_0_1369
*83 FILLER_0_0_137
*84 FILLER_0_0_1373
*85 FILLER_0_0_1385
*86 FILLER_0_0_1397
*87 FILLER_0_0_1401
*88 FILLER_0_0_141
*89 FILLER_0_0_1413
*90 FILLER_0_0_1425
*91 FILLER_0_0_1429
*92 FILLER_0_0_1441
*93 FILLER_0_0_1453
*94 FILLER_0_0_1457
*95 FILLER_0_0_1469
*96 FILLER_0_0_1481
*97 FILLER_0_0_1485
*98 FILLER_0_0_1497
*99 FILLER_0_0_15
*100 FILLER_0_0_1509
*101 FILLER_0_0_1516
*102 FILLER_0_0_1528
*103 FILLER_0_0_153
*104 FILLER_0_0_1541
*105 FILLER_0_0_1553
*106 FILLER_0_0_1565
*107 FILLER_0_0_1569
*108 FILLER_0_0_1581
*109 FILLER_0_0_1593
*110 FILLER_0_0_1597
*111 FILLER_0_0_1609
*112 FILLER_0_0_1621
*113 FILLER_0_0_1625
*114 FILLER_0_0_1637
*115 FILLER_0_0_1649
*116 FILLER_0_0_165
*117 FILLER_0_0_1653
*118 FILLER_0_0_1665
*119 FILLER_0_0_1677
*120 FILLER_0_0_1681
*121 FILLER_0_0_169
*122 FILLER_0_0_1693
*123 FILLER_0_0_1705
*124 FILLER_0_0_1709
*125 FILLER_0_0_1715
*126 FILLER_0_0_1727
*127 FILLER_0_0_1735
*128 FILLER_0_0_1737
*129 FILLER_0_0_1749
*130 FILLER_0_0_1761
*131 FILLER_0_0_1765
*132 FILLER_0_0_1777
*133 FILLER_0_0_1789
*134 FILLER_0_0_1793
*135 FILLER_0_0_1805
*136 FILLER_0_0_181
*137 FILLER_0_0_1817
*138 FILLER_0_0_1821
*139 FILLER_0_0_1833
*140 FILLER_0_0_1845
*141 FILLER_0_0_1849
*142 FILLER_0_0_1861
*143 FILLER_0_0_1873
*144 FILLER_0_0_1877
*145 FILLER_0_0_1889
*146 FILLER_0_0_1901
*147 FILLER_0_0_1905
*148 FILLER_0_0_1913
*149 FILLER_0_0_1917
*150 FILLER_0_0_1929
*151 FILLER_0_0_193
*152 FILLER_0_0_1933
*153 FILLER_0_0_1945
*154 FILLER_0_0_1957
*155 FILLER_0_0_1961
*156 FILLER_0_0_197
*157 FILLER_0_0_1973
*158 FILLER_0_0_1985
*159 FILLER_0_0_1989
*160 FILLER_0_0_2001
*161 FILLER_0_0_2013
*162 FILLER_0_0_2017
*163 FILLER_0_0_2029
*164 FILLER_0_0_2041
*165 FILLER_0_0_2045
*166 FILLER_0_0_2057
*167 FILLER_0_0_2069
*168 FILLER_0_0_2073
*169 FILLER_0_0_2085
*170 FILLER_0_0_209
*171 FILLER_0_0_2097
*172 FILLER_0_0_2101
*173 FILLER_0_0_2113
*174 FILLER_0_0_2119
*175 FILLER_0_0_2127
*176 FILLER_0_0_2129
*177 FILLER_0_0_2141
*178 FILLER_0_0_2153
*179 FILLER_0_0_2157
*180 FILLER_0_0_2169
*181 FILLER_0_0_2181
*182 FILLER_0_0_2185
*183 FILLER_0_0_2197
*184 FILLER_0_0_2209
*185 FILLER_0_0_221
*186 FILLER_0_0_2213
*187 FILLER_0_0_2225
*188 FILLER_0_0_2237
*189 FILLER_0_0_2241
*190 FILLER_0_0_225
*191 FILLER_0_0_2253
*192 FILLER_0_0_2265
*193 FILLER_0_0_2269
*194 FILLER_0_0_2281
*195 FILLER_0_0_2293
*196 FILLER_0_0_2297
*197 FILLER_0_0_2309
*198 FILLER_0_0_2317
*199 FILLER_0_0_2321
*200 FILLER_0_0_2325
*201 FILLER_0_0_2337
*202 FILLER_0_0_2349
*203 FILLER_0_0_2353
*204 FILLER_0_0_2365
*205 FILLER_0_0_237
*206 FILLER_0_0_2377
*207 FILLER_0_0_2381
*208 FILLER_0_0_2393
*209 FILLER_0_0_2405
*210 FILLER_0_0_2409
*211 FILLER_0_0_2421
*212 FILLER_0_0_2433
*213 FILLER_0_0_2437
*214 FILLER_0_0_2449
*215 FILLER_0_0_2461
*216 FILLER_0_0_2465
*217 FILLER_0_0_2477
*218 FILLER_0_0_2489
*219 FILLER_0_0_249
*220 FILLER_0_0_2493
*221 FILLER_0_0_2505
*222 FILLER_0_0_2517
*223 FILLER_0_0_2524
*224 FILLER_0_0_253
*225 FILLER_0_0_2536
*226 FILLER_0_0_2549
*227 FILLER_0_0_2561
*228 FILLER_0_0_2573
*229 FILLER_0_0_2577
*230 FILLER_0_0_2589
*231 FILLER_0_0_2601
*232 FILLER_0_0_2605
*233 FILLER_0_0_2617
*234 FILLER_0_0_2629
*235 FILLER_0_0_2633
*236 FILLER_0_0_2645
*237 FILLER_0_0_265
*238 FILLER_0_0_2657
*239 FILLER_0_0_2661
*240 FILLER_0_0_2673
*241 FILLER_0_0_2685
*242 FILLER_0_0_2689
*243 FILLER_0_0_27
*244 FILLER_0_0_2701
*245 FILLER_0_0_2713
*246 FILLER_0_0_2717
*247 FILLER_0_0_2721
*248 FILLER_0_0_2725
*249 FILLER_0_0_2737
*250 FILLER_0_0_2743
*251 FILLER_0_0_2745
*252 FILLER_0_0_2757
*253 FILLER_0_0_2769
*254 FILLER_0_0_277
*255 FILLER_0_0_2773
*256 FILLER_0_0_2785
*257 FILLER_0_0_2797
*258 FILLER_0_0_2801
*259 FILLER_0_0_281
*260 FILLER_0_0_2813
*261 FILLER_0_0_2825
*262 FILLER_0_0_2829
*263 FILLER_0_0_2841
*264 FILLER_0_0_2853
*265 FILLER_0_0_2857
*266 FILLER_0_0_2869
*267 FILLER_0_0_2881
*268 FILLER_0_0_2885
*269 FILLER_0_0_2897
*270 FILLER_0_0_29
*271 FILLER_0_0_2909
*272 FILLER_0_0_2913
*273 FILLER_0_0_2921
*274 FILLER_0_0_2927
*275 FILLER_0_0_293
*276 FILLER_0_0_2939
*277 FILLER_0_0_2941
*278 FILLER_0_0_2953
*279 FILLER_0_0_2965
*280 FILLER_0_0_2969
*281 FILLER_0_0_297
*282 FILLER_0_0_2981
*283 FILLER_0_0_2993
*284 FILLER_0_0_2997
*285 FILLER_0_0_3
*286 FILLER_0_0_3009
*287 FILLER_0_0_3015
*288 FILLER_0_0_304
*289 FILLER_0_0_309
*290 FILLER_0_0_321
*291 FILLER_0_0_333
*292 FILLER_0_0_337
*293 FILLER_0_0_349
*294 FILLER_0_0_361
*295 FILLER_0_0_365
*296 FILLER_0_0_377
*297 FILLER_0_0_389
*298 FILLER_0_0_393
*299 FILLER_0_0_405
*300 FILLER_0_0_41
*301 FILLER_0_0_417
*302 FILLER_0_0_421
*303 FILLER_0_0_433
*304 FILLER_0_0_445
*305 FILLER_0_0_449
*306 FILLER_0_0_461
*307 FILLER_0_0_473
*308 FILLER_0_0_477
*309 FILLER_0_0_489
*310 FILLER_0_0_497
*311 FILLER_0_0_505
*312 FILLER_0_0_517
*313 FILLER_0_0_529
*314 FILLER_0_0_53
*315 FILLER_0_0_533
*316 FILLER_0_0_545
*317 FILLER_0_0_557
*318 FILLER_0_0_561
*319 FILLER_0_0_57
*320 FILLER_0_0_573
*321 FILLER_0_0_585
*322 FILLER_0_0_589
*323 FILLER_0_0_601
*324 FILLER_0_0_613
*325 FILLER_0_0_617
*326 FILLER_0_0_629
*327 FILLER_0_0_641
*328 FILLER_0_0_645
*329 FILLER_0_0_657
*330 FILLER_0_0_669
*331 FILLER_0_0_673
*332 FILLER_0_0_685
*333 FILLER_0_0_69
*334 FILLER_0_0_697
*335 FILLER_0_0_701
*336 FILLER_0_0_706
*337 FILLER_0_0_718
*338 FILLER_0_0_726
*339 FILLER_0_0_729
*340 FILLER_0_0_741
*341 FILLER_0_0_753
*342 FILLER_0_0_757
*343 FILLER_0_0_769
*344 FILLER_0_0_781
*345 FILLER_0_0_785
*346 FILLER_0_0_797
*347 FILLER_0_0_809
*348 FILLER_0_0_81
*349 FILLER_0_0_813
*350 FILLER_0_0_825
*351 FILLER_0_0_837
*352 FILLER_0_0_841
*353 FILLER_0_0_85
*354 FILLER_0_0_853
*355 FILLER_0_0_865
*356 FILLER_0_0_869
*357 FILLER_0_0_881
*358 FILLER_0_0_893
*359 FILLER_0_0_897
*360 FILLER_0_0_903
*361 FILLER_0_0_915
*362 FILLER_0_0_923
*363 FILLER_0_0_925
*364 FILLER_0_0_93
*365 FILLER_0_0_937
*366 FILLER_0_0_949
*367 FILLER_0_0_953
*368 FILLER_0_0_965
*369 FILLER_0_0_977
*370 FILLER_0_0_981
*371 FILLER_0_0_993
*372 FILLER_0_100_15
*373 FILLER_0_100_1557
*374 FILLER_0_100_1569
*375 FILLER_0_100_1581
*376 FILLER_0_100_1583
*377 FILLER_0_100_1595
*378 FILLER_0_100_1607
*379 FILLER_0_100_1619
*380 FILLER_0_100_1631
*381 FILLER_0_100_1637
*382 FILLER_0_100_1639
*383 FILLER_0_100_1651
*384 FILLER_0_100_1663
*385 FILLER_0_100_1675
*386 FILLER_0_100_1687
*387 FILLER_0_100_1693
*388 FILLER_0_100_1695
*389 FILLER_0_100_1707
*390 FILLER_0_100_1719
*391 FILLER_0_100_1731
*392 FILLER_0_100_1743
*393 FILLER_0_100_1749
*394 FILLER_0_100_1751
*395 FILLER_0_100_1763
*396 FILLER_0_100_1775
*397 FILLER_0_100_1787
*398 FILLER_0_100_1799
*399 FILLER_0_100_1805
*400 FILLER_0_100_1807
*401 FILLER_0_100_1819
*402 FILLER_0_100_1831
*403 FILLER_0_100_1843
*404 FILLER_0_100_1855
*405 FILLER_0_100_1861
*406 FILLER_0_100_1863
*407 FILLER_0_100_1875
*408 FILLER_0_100_1887
*409 FILLER_0_100_1899
*410 FILLER_0_100_1911
*411 FILLER_0_100_1917
*412 FILLER_0_100_1919
*413 FILLER_0_100_1931
*414 FILLER_0_100_1943
*415 FILLER_0_100_1955
*416 FILLER_0_100_1967
*417 FILLER_0_100_1973
*418 FILLER_0_100_1975
*419 FILLER_0_100_1987
*420 FILLER_0_100_1999
*421 FILLER_0_100_2011
*422 FILLER_0_100_2023
*423 FILLER_0_100_2029
*424 FILLER_0_100_2031
*425 FILLER_0_100_2043
*426 FILLER_0_100_2055
*427 FILLER_0_100_2067
*428 FILLER_0_100_2079
*429 FILLER_0_100_2085
*430 FILLER_0_100_2087
*431 FILLER_0_100_2099
*432 FILLER_0_100_2111
*433 FILLER_0_100_2123
*434 FILLER_0_100_2135
*435 FILLER_0_100_2141
*436 FILLER_0_100_2143
*437 FILLER_0_100_2155
*438 FILLER_0_100_2167
*439 FILLER_0_100_2179
*440 FILLER_0_100_2191
*441 FILLER_0_100_2197
*442 FILLER_0_100_2199
*443 FILLER_0_100_2211
*444 FILLER_0_100_2223
*445 FILLER_0_100_2235
*446 FILLER_0_100_2247
*447 FILLER_0_100_2253
*448 FILLER_0_100_2255
*449 FILLER_0_100_2267
*450 FILLER_0_100_2279
*451 FILLER_0_100_2291
*452 FILLER_0_100_2303
*453 FILLER_0_100_2309
*454 FILLER_0_100_2311
*455 FILLER_0_100_2323
*456 FILLER_0_100_2335
*457 FILLER_0_100_2347
*458 FILLER_0_100_2359
*459 FILLER_0_100_2365
*460 FILLER_0_100_2367
*461 FILLER_0_100_2379
*462 FILLER_0_100_2391
*463 FILLER_0_100_2403
*464 FILLER_0_100_2415
*465 FILLER_0_100_2421
*466 FILLER_0_100_2423
*467 FILLER_0_100_2435
*468 FILLER_0_100_2447
*469 FILLER_0_100_2459
*470 FILLER_0_100_2471
*471 FILLER_0_100_2477
*472 FILLER_0_100_2479
*473 FILLER_0_100_2491
*474 FILLER_0_100_2503
*475 FILLER_0_100_2515
*476 FILLER_0_100_2527
*477 FILLER_0_100_2533
*478 FILLER_0_100_2535
*479 FILLER_0_100_2547
*480 FILLER_0_100_2559
*481 FILLER_0_100_2571
*482 FILLER_0_100_2583
*483 FILLER_0_100_2589
*484 FILLER_0_100_2591
*485 FILLER_0_100_2603
*486 FILLER_0_100_2615
*487 FILLER_0_100_2627
*488 FILLER_0_100_2639
*489 FILLER_0_100_2645
*490 FILLER_0_100_2647
*491 FILLER_0_100_2659
*492 FILLER_0_100_2671
*493 FILLER_0_100_2683
*494 FILLER_0_100_2695
*495 FILLER_0_100_27
*496 FILLER_0_100_2701
*497 FILLER_0_100_2703
*498 FILLER_0_100_2715
*499 FILLER_0_100_2727
*500 FILLER_0_100_2739
*501 FILLER_0_100_2751
*502 FILLER_0_100_2757
*503 FILLER_0_100_2759
*504 FILLER_0_100_2771
*505 FILLER_0_100_2783
*506 FILLER_0_100_2795
*507 FILLER_0_100_2807
*508 FILLER_0_100_2813
*509 FILLER_0_100_2815
*510 FILLER_0_100_2827
*511 FILLER_0_100_2839
*512 FILLER_0_100_2851
*513 FILLER_0_100_2863
*514 FILLER_0_100_2869
*515 FILLER_0_100_2871
*516 FILLER_0_100_2883
*517 FILLER_0_100_2895
*518 FILLER_0_100_29
*519 FILLER_0_100_2907
*520 FILLER_0_100_2919
*521 FILLER_0_100_2925
*522 FILLER_0_100_2927
*523 FILLER_0_100_2939
*524 FILLER_0_100_2951
*525 FILLER_0_100_2963
*526 FILLER_0_100_2975
*527 FILLER_0_100_2981
*528 FILLER_0_100_2983
*529 FILLER_0_100_2995
*530 FILLER_0_100_3
*531 FILLER_0_100_3007
*532 FILLER_0_100_3015
*533 FILLER_0_100_41
*534 FILLER_0_100_53
*535 FILLER_0_100_65
*536 FILLER_0_100_77
*537 FILLER_0_100_83
*538 FILLER_0_100_85
*539 FILLER_0_101_15
*540 FILLER_0_101_1557
*541 FILLER_0_101_1569
*542 FILLER_0_101_1581
*543 FILLER_0_101_1593
*544 FILLER_0_101_1605
*545 FILLER_0_101_1609
*546 FILLER_0_101_1611
*547 FILLER_0_101_1623
*548 FILLER_0_101_1635
*549 FILLER_0_101_1647
*550 FILLER_0_101_1659
*551 FILLER_0_101_1665
*552 FILLER_0_101_1667
*553 FILLER_0_101_1679
*554 FILLER_0_101_1691
*555 FILLER_0_101_1703
*556 FILLER_0_101_1715
*557 FILLER_0_101_1721
*558 FILLER_0_101_1723
*559 FILLER_0_101_1735
*560 FILLER_0_101_1747
*561 FILLER_0_101_1759
*562 FILLER_0_101_1771
*563 FILLER_0_101_1777
*564 FILLER_0_101_1779
*565 FILLER_0_101_1791
*566 FILLER_0_101_1803
*567 FILLER_0_101_1815
*568 FILLER_0_101_1827
*569 FILLER_0_101_1833
*570 FILLER_0_101_1835
*571 FILLER_0_101_1847
*572 FILLER_0_101_1859
*573 FILLER_0_101_1871
*574 FILLER_0_101_1883
*575 FILLER_0_101_1889
*576 FILLER_0_101_1891
*577 FILLER_0_101_1903
*578 FILLER_0_101_1915
*579 FILLER_0_101_1927
*580 FILLER_0_101_1939
*581 FILLER_0_101_1945
*582 FILLER_0_101_1947
*583 FILLER_0_101_1959
*584 FILLER_0_101_1971
*585 FILLER_0_101_1983
*586 FILLER_0_101_1995
*587 FILLER_0_101_2001
*588 FILLER_0_101_2003
*589 FILLER_0_101_2015
*590 FILLER_0_101_2027
*591 FILLER_0_101_2039
*592 FILLER_0_101_2051
*593 FILLER_0_101_2057
*594 FILLER_0_101_2059
*595 FILLER_0_101_2071
*596 FILLER_0_101_2083
*597 FILLER_0_101_2095
*598 FILLER_0_101_2107
*599 FILLER_0_101_2113
*600 FILLER_0_101_2115
*601 FILLER_0_101_2127
*602 FILLER_0_101_2139
*603 FILLER_0_101_2151
*604 FILLER_0_101_2163
*605 FILLER_0_101_2169
*606 FILLER_0_101_2171
*607 FILLER_0_101_2183
*608 FILLER_0_101_2195
*609 FILLER_0_101_2207
*610 FILLER_0_101_2219
*611 FILLER_0_101_2225
*612 FILLER_0_101_2227
*613 FILLER_0_101_2239
*614 FILLER_0_101_2251
*615 FILLER_0_101_2263
*616 FILLER_0_101_2275
*617 FILLER_0_101_2281
*618 FILLER_0_101_2283
*619 FILLER_0_101_2295
*620 FILLER_0_101_2307
*621 FILLER_0_101_2319
*622 FILLER_0_101_2331
*623 FILLER_0_101_2337
*624 FILLER_0_101_2339
*625 FILLER_0_101_2351
*626 FILLER_0_101_2363
*627 FILLER_0_101_2375
*628 FILLER_0_101_2387
*629 FILLER_0_101_2393
*630 FILLER_0_101_2395
*631 FILLER_0_101_2407
*632 FILLER_0_101_2419
*633 FILLER_0_101_2431
*634 FILLER_0_101_2443
*635 FILLER_0_101_2449
*636 FILLER_0_101_2451
*637 FILLER_0_101_2463
*638 FILLER_0_101_2475
*639 FILLER_0_101_2487
*640 FILLER_0_101_2499
*641 FILLER_0_101_2505
*642 FILLER_0_101_2507
*643 FILLER_0_101_2519
*644 FILLER_0_101_2531
*645 FILLER_0_101_2543
*646 FILLER_0_101_2555
*647 FILLER_0_101_2561
*648 FILLER_0_101_2563
*649 FILLER_0_101_2575
*650 FILLER_0_101_2587
*651 FILLER_0_101_2599
*652 FILLER_0_101_2611
*653 FILLER_0_101_2617
*654 FILLER_0_101_2619
*655 FILLER_0_101_2631
*656 FILLER_0_101_2643
*657 FILLER_0_101_2655
*658 FILLER_0_101_2667
*659 FILLER_0_101_2673
*660 FILLER_0_101_2675
*661 FILLER_0_101_2687
*662 FILLER_0_101_2699
*663 FILLER_0_101_27
*664 FILLER_0_101_2711
*665 FILLER_0_101_2723
*666 FILLER_0_101_2729
*667 FILLER_0_101_2731
*668 FILLER_0_101_2743
*669 FILLER_0_101_2755
*670 FILLER_0_101_2767
*671 FILLER_0_101_2779
*672 FILLER_0_101_2785
*673 FILLER_0_101_2787
*674 FILLER_0_101_2799
*675 FILLER_0_101_2811
*676 FILLER_0_101_2823
*677 FILLER_0_101_2835
*678 FILLER_0_101_2841
*679 FILLER_0_101_2843
*680 FILLER_0_101_2855
*681 FILLER_0_101_2867
*682 FILLER_0_101_2879
*683 FILLER_0_101_2891
*684 FILLER_0_101_2897
*685 FILLER_0_101_2899
*686 FILLER_0_101_2911
*687 FILLER_0_101_2923
*688 FILLER_0_101_2935
*689 FILLER_0_101_2947
*690 FILLER_0_101_2953
*691 FILLER_0_101_2955
*692 FILLER_0_101_2967
*693 FILLER_0_101_2979
*694 FILLER_0_101_2991
*695 FILLER_0_101_3
*696 FILLER_0_101_3003
*697 FILLER_0_101_3009
*698 FILLER_0_101_3011
*699 FILLER_0_101_3015
*700 FILLER_0_101_39
*701 FILLER_0_101_51
*702 FILLER_0_101_55
*703 FILLER_0_101_57
*704 FILLER_0_101_69
*705 FILLER_0_101_81
*706 FILLER_0_102_15
*707 FILLER_0_102_1557
*708 FILLER_0_102_1569
*709 FILLER_0_102_1581
*710 FILLER_0_102_1583
*711 FILLER_0_102_1595
*712 FILLER_0_102_1607
*713 FILLER_0_102_1619
*714 FILLER_0_102_1631
*715 FILLER_0_102_1637
*716 FILLER_0_102_1639
*717 FILLER_0_102_1651
*718 FILLER_0_102_1663
*719 FILLER_0_102_1675
*720 FILLER_0_102_1687
*721 FILLER_0_102_1693
*722 FILLER_0_102_1695
*723 FILLER_0_102_1707
*724 FILLER_0_102_1719
*725 FILLER_0_102_1731
*726 FILLER_0_102_1743
*727 FILLER_0_102_1749
*728 FILLER_0_102_1751
*729 FILLER_0_102_1763
*730 FILLER_0_102_1775
*731 FILLER_0_102_1787
*732 FILLER_0_102_1799
*733 FILLER_0_102_1805
*734 FILLER_0_102_1807
*735 FILLER_0_102_1819
*736 FILLER_0_102_1831
*737 FILLER_0_102_1843
*738 FILLER_0_102_1855
*739 FILLER_0_102_1861
*740 FILLER_0_102_1863
*741 FILLER_0_102_1875
*742 FILLER_0_102_1887
*743 FILLER_0_102_1899
*744 FILLER_0_102_1911
*745 FILLER_0_102_1917
*746 FILLER_0_102_1919
*747 FILLER_0_102_1931
*748 FILLER_0_102_1943
*749 FILLER_0_102_1955
*750 FILLER_0_102_1967
*751 FILLER_0_102_1973
*752 FILLER_0_102_1975
*753 FILLER_0_102_1987
*754 FILLER_0_102_1999
*755 FILLER_0_102_2011
*756 FILLER_0_102_2023
*757 FILLER_0_102_2029
*758 FILLER_0_102_2031
*759 FILLER_0_102_2043
*760 FILLER_0_102_2055
*761 FILLER_0_102_2067
*762 FILLER_0_102_2079
*763 FILLER_0_102_2085
*764 FILLER_0_102_2087
*765 FILLER_0_102_2099
*766 FILLER_0_102_2111
*767 FILLER_0_102_2123
*768 FILLER_0_102_2135
*769 FILLER_0_102_2141
*770 FILLER_0_102_2143
*771 FILLER_0_102_2155
*772 FILLER_0_102_2167
*773 FILLER_0_102_2179
*774 FILLER_0_102_2191
*775 FILLER_0_102_2197
*776 FILLER_0_102_2199
*777 FILLER_0_102_2211
*778 FILLER_0_102_2223
*779 FILLER_0_102_2235
*780 FILLER_0_102_2247
*781 FILLER_0_102_2253
*782 FILLER_0_102_2255
*783 FILLER_0_102_2267
*784 FILLER_0_102_2279
*785 FILLER_0_102_2291
*786 FILLER_0_102_2303
*787 FILLER_0_102_2309
*788 FILLER_0_102_2311
*789 FILLER_0_102_2323
*790 FILLER_0_102_2335
*791 FILLER_0_102_2347
*792 FILLER_0_102_2359
*793 FILLER_0_102_2365
*794 FILLER_0_102_2367
*795 FILLER_0_102_2379
*796 FILLER_0_102_2391
*797 FILLER_0_102_2403
*798 FILLER_0_102_2415
*799 FILLER_0_102_2421
*800 FILLER_0_102_2423
*801 FILLER_0_102_2435
*802 FILLER_0_102_2447
*803 FILLER_0_102_2459
*804 FILLER_0_102_2471
*805 FILLER_0_102_2477
*806 FILLER_0_102_2479
*807 FILLER_0_102_2491
*808 FILLER_0_102_2503
*809 FILLER_0_102_2515
*810 FILLER_0_102_2527
*811 FILLER_0_102_2533
*812 FILLER_0_102_2535
*813 FILLER_0_102_2547
*814 FILLER_0_102_2559
*815 FILLER_0_102_2571
*816 FILLER_0_102_2583
*817 FILLER_0_102_2589
*818 FILLER_0_102_2591
*819 FILLER_0_102_2603
*820 FILLER_0_102_2615
*821 FILLER_0_102_2627
*822 FILLER_0_102_2639
*823 FILLER_0_102_2645
*824 FILLER_0_102_2647
*825 FILLER_0_102_2659
*826 FILLER_0_102_2671
*827 FILLER_0_102_2683
*828 FILLER_0_102_2695
*829 FILLER_0_102_27
*830 FILLER_0_102_2701
*831 FILLER_0_102_2703
*832 FILLER_0_102_2715
*833 FILLER_0_102_2727
*834 FILLER_0_102_2739
*835 FILLER_0_102_2751
*836 FILLER_0_102_2757
*837 FILLER_0_102_2759
*838 FILLER_0_102_2771
*839 FILLER_0_102_2783
*840 FILLER_0_102_2795
*841 FILLER_0_102_2807
*842 FILLER_0_102_2813
*843 FILLER_0_102_2815
*844 FILLER_0_102_2827
*845 FILLER_0_102_2839
*846 FILLER_0_102_2851
*847 FILLER_0_102_2863
*848 FILLER_0_102_2869
*849 FILLER_0_102_2871
*850 FILLER_0_102_2883
*851 FILLER_0_102_2895
*852 FILLER_0_102_29
*853 FILLER_0_102_2907
*854 FILLER_0_102_2919
*855 FILLER_0_102_2925
*856 FILLER_0_102_2927
*857 FILLER_0_102_2939
*858 FILLER_0_102_2951
*859 FILLER_0_102_2963
*860 FILLER_0_102_2975
*861 FILLER_0_102_2981
*862 FILLER_0_102_2983
*863 FILLER_0_102_2995
*864 FILLER_0_102_3
*865 FILLER_0_102_3007
*866 FILLER_0_102_3015
*867 FILLER_0_102_41
*868 FILLER_0_102_53
*869 FILLER_0_102_65
*870 FILLER_0_102_77
*871 FILLER_0_102_83
*872 FILLER_0_102_85
*873 FILLER_0_103_15
*874 FILLER_0_103_1557
*875 FILLER_0_103_1569
*876 FILLER_0_103_1581
*877 FILLER_0_103_1593
*878 FILLER_0_103_1605
*879 FILLER_0_103_1609
*880 FILLER_0_103_1611
*881 FILLER_0_103_1623
*882 FILLER_0_103_1635
*883 FILLER_0_103_1647
*884 FILLER_0_103_1659
*885 FILLER_0_103_1665
*886 FILLER_0_103_1667
*887 FILLER_0_103_1679
*888 FILLER_0_103_1691
*889 FILLER_0_103_1703
*890 FILLER_0_103_1715
*891 FILLER_0_103_1721
*892 FILLER_0_103_1723
*893 FILLER_0_103_1735
*894 FILLER_0_103_1747
*895 FILLER_0_103_1759
*896 FILLER_0_103_1771
*897 FILLER_0_103_1777
*898 FILLER_0_103_1779
*899 FILLER_0_103_1791
*900 FILLER_0_103_1803
*901 FILLER_0_103_1815
*902 FILLER_0_103_1827
*903 FILLER_0_103_1833
*904 FILLER_0_103_1835
*905 FILLER_0_103_1847
*906 FILLER_0_103_1859
*907 FILLER_0_103_1871
*908 FILLER_0_103_1883
*909 FILLER_0_103_1889
*910 FILLER_0_103_1891
*911 FILLER_0_103_1903
*912 FILLER_0_103_1915
*913 FILLER_0_103_1927
*914 FILLER_0_103_1939
*915 FILLER_0_103_1945
*916 FILLER_0_103_1947
*917 FILLER_0_103_1959
*918 FILLER_0_103_1971
*919 FILLER_0_103_1983
*920 FILLER_0_103_1995
*921 FILLER_0_103_2001
*922 FILLER_0_103_2003
*923 FILLER_0_103_2015
*924 FILLER_0_103_2027
*925 FILLER_0_103_2039
*926 FILLER_0_103_2051
*927 FILLER_0_103_2057
*928 FILLER_0_103_2059
*929 FILLER_0_103_2071
*930 FILLER_0_103_2083
*931 FILLER_0_103_2095
*932 FILLER_0_103_2107
*933 FILLER_0_103_2113
*934 FILLER_0_103_2115
*935 FILLER_0_103_2127
*936 FILLER_0_103_2139
*937 FILLER_0_103_2151
*938 FILLER_0_103_2163
*939 FILLER_0_103_2169
*940 FILLER_0_103_2171
*941 FILLER_0_103_2183
*942 FILLER_0_103_2195
*943 FILLER_0_103_2207
*944 FILLER_0_103_2219
*945 FILLER_0_103_2225
*946 FILLER_0_103_2227
*947 FILLER_0_103_2239
*948 FILLER_0_103_2251
*949 FILLER_0_103_2263
*950 FILLER_0_103_2275
*951 FILLER_0_103_2281
*952 FILLER_0_103_2283
*953 FILLER_0_103_2295
*954 FILLER_0_103_2307
*955 FILLER_0_103_2319
*956 FILLER_0_103_2331
*957 FILLER_0_103_2337
*958 FILLER_0_103_2339
*959 FILLER_0_103_2351
*960 FILLER_0_103_2363
*961 FILLER_0_103_2375
*962 FILLER_0_103_2387
*963 FILLER_0_103_2393
*964 FILLER_0_103_2395
*965 FILLER_0_103_2407
*966 FILLER_0_103_2419
*967 FILLER_0_103_2431
*968 FILLER_0_103_2443
*969 FILLER_0_103_2449
*970 FILLER_0_103_2451
*971 FILLER_0_103_2463
*972 FILLER_0_103_2475
*973 FILLER_0_103_2487
*974 FILLER_0_103_2499
*975 FILLER_0_103_2505
*976 FILLER_0_103_2507
*977 FILLER_0_103_2519
*978 FILLER_0_103_2531
*979 FILLER_0_103_2543
*980 FILLER_0_103_2555
*981 FILLER_0_103_2561
*982 FILLER_0_103_2563
*983 FILLER_0_103_2575
*984 FILLER_0_103_2587
*985 FILLER_0_103_2599
*986 FILLER_0_103_2611
*987 FILLER_0_103_2617
*988 FILLER_0_103_2619
*989 FILLER_0_103_2631
*990 FILLER_0_103_2643
*991 FILLER_0_103_2655
*992 FILLER_0_103_2667
*993 FILLER_0_103_2673
*994 FILLER_0_103_2675
*995 FILLER_0_103_2687
*996 FILLER_0_103_2699
*997 FILLER_0_103_27
*998 FILLER_0_103_2711
*999 FILLER_0_103_2723
*1000 FILLER_0_103_2729
*1001 FILLER_0_103_2731
*1002 FILLER_0_103_2743
*1003 FILLER_0_103_2755
*1004 FILLER_0_103_2767
*1005 FILLER_0_103_2779
*1006 FILLER_0_103_2785
*1007 FILLER_0_103_2787
*1008 FILLER_0_103_2799
*1009 FILLER_0_103_2811
*1010 FILLER_0_103_2823
*1011 FILLER_0_103_2835
*1012 FILLER_0_103_2841
*1013 FILLER_0_103_2843
*1014 FILLER_0_103_2855
*1015 FILLER_0_103_2867
*1016 FILLER_0_103_2879
*1017 FILLER_0_103_2891
*1018 FILLER_0_103_2897
*1019 FILLER_0_103_2899
*1020 FILLER_0_103_2911
*1021 FILLER_0_103_2923
*1022 FILLER_0_103_2935
*1023 FILLER_0_103_2947
*1024 FILLER_0_103_2953
*1025 FILLER_0_103_2955
*1026 FILLER_0_103_2967
*1027 FILLER_0_103_2979
*1028 FILLER_0_103_2991
*1029 FILLER_0_103_3
*1030 FILLER_0_103_3003
*1031 FILLER_0_103_3009
*1032 FILLER_0_103_3011
*1033 FILLER_0_103_3015
*1034 FILLER_0_103_39
*1035 FILLER_0_103_51
*1036 FILLER_0_103_55
*1037 FILLER_0_103_57
*1038 FILLER_0_103_69
*1039 FILLER_0_103_81
*1040 FILLER_0_104_15
*1041 FILLER_0_104_1557
*1042 FILLER_0_104_1569
*1043 FILLER_0_104_1581
*1044 FILLER_0_104_1583
*1045 FILLER_0_104_1595
*1046 FILLER_0_104_1607
*1047 FILLER_0_104_1619
*1048 FILLER_0_104_1631
*1049 FILLER_0_104_1637
*1050 FILLER_0_104_1639
*1051 FILLER_0_104_1651
*1052 FILLER_0_104_1663
*1053 FILLER_0_104_1675
*1054 FILLER_0_104_1687
*1055 FILLER_0_104_1693
*1056 FILLER_0_104_1695
*1057 FILLER_0_104_1707
*1058 FILLER_0_104_1719
*1059 FILLER_0_104_1731
*1060 FILLER_0_104_1743
*1061 FILLER_0_104_1749
*1062 FILLER_0_104_1751
*1063 FILLER_0_104_1763
*1064 FILLER_0_104_1775
*1065 FILLER_0_104_1787
*1066 FILLER_0_104_1799
*1067 FILLER_0_104_1805
*1068 FILLER_0_104_1807
*1069 FILLER_0_104_1819
*1070 FILLER_0_104_1831
*1071 FILLER_0_104_1843
*1072 FILLER_0_104_1855
*1073 FILLER_0_104_1861
*1074 FILLER_0_104_1863
*1075 FILLER_0_104_1875
*1076 FILLER_0_104_1887
*1077 FILLER_0_104_1899
*1078 FILLER_0_104_1911
*1079 FILLER_0_104_1917
*1080 FILLER_0_104_1919
*1081 FILLER_0_104_1931
*1082 FILLER_0_104_1943
*1083 FILLER_0_104_1955
*1084 FILLER_0_104_1967
*1085 FILLER_0_104_1973
*1086 FILLER_0_104_1975
*1087 FILLER_0_104_1987
*1088 FILLER_0_104_1999
*1089 FILLER_0_104_2011
*1090 FILLER_0_104_2023
*1091 FILLER_0_104_2029
*1092 FILLER_0_104_2031
*1093 FILLER_0_104_2043
*1094 FILLER_0_104_2055
*1095 FILLER_0_104_2067
*1096 FILLER_0_104_2079
*1097 FILLER_0_104_2085
*1098 FILLER_0_104_2087
*1099 FILLER_0_104_2099
*1100 FILLER_0_104_2111
*1101 FILLER_0_104_2123
*1102 FILLER_0_104_2135
*1103 FILLER_0_104_2141
*1104 FILLER_0_104_2143
*1105 FILLER_0_104_2155
*1106 FILLER_0_104_2167
*1107 FILLER_0_104_2179
*1108 FILLER_0_104_2191
*1109 FILLER_0_104_2197
*1110 FILLER_0_104_2199
*1111 FILLER_0_104_2211
*1112 FILLER_0_104_2223
*1113 FILLER_0_104_2235
*1114 FILLER_0_104_2247
*1115 FILLER_0_104_2253
*1116 FILLER_0_104_2255
*1117 FILLER_0_104_2267
*1118 FILLER_0_104_2279
*1119 FILLER_0_104_2291
*1120 FILLER_0_104_2303
*1121 FILLER_0_104_2309
*1122 FILLER_0_104_2311
*1123 FILLER_0_104_2323
*1124 FILLER_0_104_2335
*1125 FILLER_0_104_2347
*1126 FILLER_0_104_2359
*1127 FILLER_0_104_2365
*1128 FILLER_0_104_2367
*1129 FILLER_0_104_2379
*1130 FILLER_0_104_2391
*1131 FILLER_0_104_2403
*1132 FILLER_0_104_2415
*1133 FILLER_0_104_2421
*1134 FILLER_0_104_2423
*1135 FILLER_0_104_2435
*1136 FILLER_0_104_2447
*1137 FILLER_0_104_2459
*1138 FILLER_0_104_2471
*1139 FILLER_0_104_2477
*1140 FILLER_0_104_2479
*1141 FILLER_0_104_2491
*1142 FILLER_0_104_2503
*1143 FILLER_0_104_2515
*1144 FILLER_0_104_2527
*1145 FILLER_0_104_2533
*1146 FILLER_0_104_2535
*1147 FILLER_0_104_2547
*1148 FILLER_0_104_2559
*1149 FILLER_0_104_2571
*1150 FILLER_0_104_2583
*1151 FILLER_0_104_2589
*1152 FILLER_0_104_2591
*1153 FILLER_0_104_2603
*1154 FILLER_0_104_2615
*1155 FILLER_0_104_2627
*1156 FILLER_0_104_2639
*1157 FILLER_0_104_2645
*1158 FILLER_0_104_2647
*1159 FILLER_0_104_2659
*1160 FILLER_0_104_2671
*1161 FILLER_0_104_2683
*1162 FILLER_0_104_2695
*1163 FILLER_0_104_27
*1164 FILLER_0_104_2701
*1165 FILLER_0_104_2703
*1166 FILLER_0_104_2715
*1167 FILLER_0_104_2727
*1168 FILLER_0_104_2739
*1169 FILLER_0_104_2751
*1170 FILLER_0_104_2757
*1171 FILLER_0_104_2759
*1172 FILLER_0_104_2771
*1173 FILLER_0_104_2783
*1174 FILLER_0_104_2795
*1175 FILLER_0_104_2807
*1176 FILLER_0_104_2813
*1177 FILLER_0_104_2815
*1178 FILLER_0_104_2827
*1179 FILLER_0_104_2839
*1180 FILLER_0_104_2851
*1181 FILLER_0_104_2863
*1182 FILLER_0_104_2869
*1183 FILLER_0_104_2871
*1184 FILLER_0_104_2883
*1185 FILLER_0_104_2895
*1186 FILLER_0_104_29
*1187 FILLER_0_104_2907
*1188 FILLER_0_104_2919
*1189 FILLER_0_104_2925
*1190 FILLER_0_104_2927
*1191 FILLER_0_104_2939
*1192 FILLER_0_104_2951
*1193 FILLER_0_104_2963
*1194 FILLER_0_104_2975
*1195 FILLER_0_104_2981
*1196 FILLER_0_104_2983
*1197 FILLER_0_104_2995
*1198 FILLER_0_104_3
*1199 FILLER_0_104_3007
*1200 FILLER_0_104_3015
*1201 FILLER_0_104_41
*1202 FILLER_0_104_53
*1203 FILLER_0_104_65
*1204 FILLER_0_104_77
*1205 FILLER_0_104_83
*1206 FILLER_0_104_85
*1207 FILLER_0_105_15
*1208 FILLER_0_105_1557
*1209 FILLER_0_105_1569
*1210 FILLER_0_105_1581
*1211 FILLER_0_105_1593
*1212 FILLER_0_105_1605
*1213 FILLER_0_105_1609
*1214 FILLER_0_105_1611
*1215 FILLER_0_105_1623
*1216 FILLER_0_105_1635
*1217 FILLER_0_105_1647
*1218 FILLER_0_105_1659
*1219 FILLER_0_105_1665
*1220 FILLER_0_105_1667
*1221 FILLER_0_105_1679
*1222 FILLER_0_105_1691
*1223 FILLER_0_105_1703
*1224 FILLER_0_105_1715
*1225 FILLER_0_105_1721
*1226 FILLER_0_105_1723
*1227 FILLER_0_105_1735
*1228 FILLER_0_105_1747
*1229 FILLER_0_105_1759
*1230 FILLER_0_105_1771
*1231 FILLER_0_105_1777
*1232 FILLER_0_105_1779
*1233 FILLER_0_105_1791
*1234 FILLER_0_105_1803
*1235 FILLER_0_105_1815
*1236 FILLER_0_105_1827
*1237 FILLER_0_105_1833
*1238 FILLER_0_105_1835
*1239 FILLER_0_105_1847
*1240 FILLER_0_105_1859
*1241 FILLER_0_105_1871
*1242 FILLER_0_105_1883
*1243 FILLER_0_105_1889
*1244 FILLER_0_105_1891
*1245 FILLER_0_105_1903
*1246 FILLER_0_105_1915
*1247 FILLER_0_105_1927
*1248 FILLER_0_105_1939
*1249 FILLER_0_105_1945
*1250 FILLER_0_105_1947
*1251 FILLER_0_105_1959
*1252 FILLER_0_105_1971
*1253 FILLER_0_105_1983
*1254 FILLER_0_105_1995
*1255 FILLER_0_105_2001
*1256 FILLER_0_105_2003
*1257 FILLER_0_105_2015
*1258 FILLER_0_105_2027
*1259 FILLER_0_105_2039
*1260 FILLER_0_105_2051
*1261 FILLER_0_105_2057
*1262 FILLER_0_105_2059
*1263 FILLER_0_105_2071
*1264 FILLER_0_105_2083
*1265 FILLER_0_105_2095
*1266 FILLER_0_105_2107
*1267 FILLER_0_105_2113
*1268 FILLER_0_105_2115
*1269 FILLER_0_105_2127
*1270 FILLER_0_105_2139
*1271 FILLER_0_105_2151
*1272 FILLER_0_105_2163
*1273 FILLER_0_105_2169
*1274 FILLER_0_105_2171
*1275 FILLER_0_105_2183
*1276 FILLER_0_105_2195
*1277 FILLER_0_105_2207
*1278 FILLER_0_105_2219
*1279 FILLER_0_105_2225
*1280 FILLER_0_105_2227
*1281 FILLER_0_105_2239
*1282 FILLER_0_105_2251
*1283 FILLER_0_105_2263
*1284 FILLER_0_105_2275
*1285 FILLER_0_105_2281
*1286 FILLER_0_105_2283
*1287 FILLER_0_105_2295
*1288 FILLER_0_105_2307
*1289 FILLER_0_105_2319
*1290 FILLER_0_105_2331
*1291 FILLER_0_105_2337
*1292 FILLER_0_105_2339
*1293 FILLER_0_105_2351
*1294 FILLER_0_105_2363
*1295 FILLER_0_105_2375
*1296 FILLER_0_105_2387
*1297 FILLER_0_105_2393
*1298 FILLER_0_105_2395
*1299 FILLER_0_105_2407
*1300 FILLER_0_105_2419
*1301 FILLER_0_105_2431
*1302 FILLER_0_105_2443
*1303 FILLER_0_105_2449
*1304 FILLER_0_105_2451
*1305 FILLER_0_105_2463
*1306 FILLER_0_105_2475
*1307 FILLER_0_105_2487
*1308 FILLER_0_105_2499
*1309 FILLER_0_105_2505
*1310 FILLER_0_105_2507
*1311 FILLER_0_105_2519
*1312 FILLER_0_105_2531
*1313 FILLER_0_105_2543
*1314 FILLER_0_105_2555
*1315 FILLER_0_105_2561
*1316 FILLER_0_105_2563
*1317 FILLER_0_105_2575
*1318 FILLER_0_105_2587
*1319 FILLER_0_105_2599
*1320 FILLER_0_105_2611
*1321 FILLER_0_105_2617
*1322 FILLER_0_105_2619
*1323 FILLER_0_105_2631
*1324 FILLER_0_105_2643
*1325 FILLER_0_105_2655
*1326 FILLER_0_105_2667
*1327 FILLER_0_105_2673
*1328 FILLER_0_105_2675
*1329 FILLER_0_105_2687
*1330 FILLER_0_105_2699
*1331 FILLER_0_105_27